* XSpice netlist created from SPICE and liberty sources by spi2xspice.py
*SPICE netlist created from verilog structural netlist module cpu by vlog2Spice (qflow)
** Start of included library /usr/local/share/qflow/tech/etri050/etri050_stdcells.sp
* NGSPICE file created from khu_etri050_stdcells.ext - technology: scmos
** End of included library /usr/local/share/qflow/tech/etri050/etri050_stdcells.sp
.subckt cpu a_vdd a_gnd a_AB_0_ a_AB_1_ a_AB_2_ a_AB_3_ a_AB_4_ a_AB_5_ a_AB_6_ a_AB_7_ a_AB_8_ a_AB_9_ a_AB_10_ a_AB_11_ a_AB_12_ a_AB_13_ a_AB_14_ a_AB_15_ a_DI_0_ a_DI_1_ a_DI_2_ a_DI_3_ a_DI_4_ a_DI_5_ a_DI_6_ a_DI_7_ a_DO_0_ a_DO_1_ a_DO_2_ a_DO_3_ a_DO_4_ a_DO_5_ a_DO_6_ a_DO_7_ a_IRQ a_NMI a_RDY a_WE a_clk a_reset
ABUFX2_insert83 [_1319_] _1319__bF$buf0 d_lut_BUFX2
ABUFX2_insert82 [_1319_] _1319__bF$buf1 d_lut_BUFX2
ABUFX2_insert81 [_1319_] _1319__bF$buf2 d_lut_BUFX2
ABUFX2_insert80 [_1319_] _1319__bF$buf3 d_lut_BUFX2
ABUFX2_insert79 [_903_] _903__bF$buf0 d_lut_BUFX2
ABUFX2_insert78 [_903_] _903__bF$buf1 d_lut_BUFX2
ABUFX2_insert77 [_903_] _903__bF$buf2 d_lut_BUFX2
ABUFX2_insert76 [_903_] _903__bF$buf3 d_lut_BUFX2
ABUFX2_insert75 [_1149_] _1149__bF$buf0 d_lut_BUFX2
ABUFX2_insert74 [_1149_] _1149__bF$buf1 d_lut_BUFX2
ABUFX2_insert73 [_1149_] _1149__bF$buf2 d_lut_BUFX2
ABUFX2_insert72 [_1149_] _1149__bF$buf3 d_lut_BUFX2
ABUFX2_insert71 [_1149_] _1149__bF$buf4 d_lut_BUFX2
ABUFX2_insert70 [_886_] _886__bF$buf0 d_lut_BUFX2
ABUFX2_insert69 [_886_] _886__bF$buf1 d_lut_BUFX2
ABUFX2_insert68 [_886_] _886__bF$buf2 d_lut_BUFX2
ABUFX2_insert67 [_886_] _886__bF$buf3 d_lut_BUFX2
ABUFX2_insert66 [_886_] _886__bF$buf4 d_lut_BUFX2
ABUFX2_insert65 [_886_] _886__bF$buf5 d_lut_BUFX2
ABUFX2_insert64 [_886_] _886__bF$buf6 d_lut_BUFX2
ABUFX2_insert63 [_1714_] _1714__bF$buf0 d_lut_BUFX2
ABUFX2_insert62 [_1714_] _1714__bF$buf1 d_lut_BUFX2
ABUFX2_insert61 [_1714_] _1714__bF$buf2 d_lut_BUFX2
ABUFX2_insert60 [_1714_] _1714__bF$buf3 d_lut_BUFX2
ABUFX2_insert59 [_1150_] _1150__bF$buf0 d_lut_BUFX2
ABUFX2_insert58 [_1150_] _1150__bF$buf1 d_lut_BUFX2
ABUFX2_insert57 [_1150_] _1150__bF$buf2 d_lut_BUFX2
ABUFX2_insert56 [_1150_] _1150__bF$buf3 d_lut_BUFX2
ABUFX2_insert55 [_1150_] _1150__bF$buf4 d_lut_BUFX2
ABUFX2_insert54 [_931_] _931__bF$buf0 d_lut_BUFX2
ABUFX2_insert53 [_931_] _931__bF$buf1 d_lut_BUFX2
ABUFX2_insert52 [_931_] _931__bF$buf2 d_lut_BUFX2
ABUFX2_insert51 [_931_] _931__bF$buf3 d_lut_BUFX2
ABUFX2_insert50 [_931_] _931__bF$buf4 d_lut_BUFX2
ABUFX2_insert49 [_1027_] _1027__bF$buf0 d_lut_BUFX2
ABUFX2_insert48 [_1027_] _1027__bF$buf1 d_lut_BUFX2
ABUFX2_insert47 [_1027_] _1027__bF$buf2 d_lut_BUFX2
ABUFX2_insert46 [_1027_] _1027__bF$buf3 d_lut_BUFX2
ABUFX2_insert45 [_1027_] _1027__bF$buf4 d_lut_BUFX2
ABUFX2_insert44 [_902_] _902__bF$buf0 d_lut_BUFX2
ABUFX2_insert43 [_902_] _902__bF$buf1 d_lut_BUFX2
ABUFX2_insert42 [_902_] _902__bF$buf2 d_lut_BUFX2
ABUFX2_insert41 [_902_] _902__bF$buf3 d_lut_BUFX2
ABUFX2_insert40 [_720_] _720__bF$buf0 d_lut_BUFX2
ABUFX2_insert39 [_720_] _720__bF$buf1 d_lut_BUFX2
ABUFX2_insert38 [_720_] _720__bF$buf2 d_lut_BUFX2
ABUFX2_insert37 [_720_] _720__bF$buf3 d_lut_BUFX2
ACLKBUF1_insert36 [clk] clk_bF$buf0 d_lut_CLKBUF1
ACLKBUF1_insert35 [clk] clk_bF$buf1 d_lut_CLKBUF1
ACLKBUF1_insert34 [clk] clk_bF$buf2 d_lut_CLKBUF1
ACLKBUF1_insert33 [clk] clk_bF$buf3 d_lut_CLKBUF1
ACLKBUF1_insert32 [clk] clk_bF$buf4 d_lut_CLKBUF1
ACLKBUF1_insert31 [clk] clk_bF$buf5 d_lut_CLKBUF1
ACLKBUF1_insert30 [clk] clk_bF$buf6 d_lut_CLKBUF1
ACLKBUF1_insert29 [clk] clk_bF$buf7 d_lut_CLKBUF1
ACLKBUF1_insert28 [clk] clk_bF$buf8 d_lut_CLKBUF1
ACLKBUF1_insert27 [clk] clk_bF$buf9 d_lut_CLKBUF1
ACLKBUF1_insert26 [clk] clk_bF$buf10 d_lut_CLKBUF1
ABUFX2_insert25 [_914_] _914__bF$buf0 d_lut_BUFX2
ABUFX2_insert24 [_914_] _914__bF$buf1 d_lut_BUFX2
ABUFX2_insert23 [_914_] _914__bF$buf2 d_lut_BUFX2
ABUFX2_insert22 [_914_] _914__bF$buf3 d_lut_BUFX2
ABUFX2_insert21 [_914_] _914__bF$buf4 d_lut_BUFX2
ABUFX2_insert20 [_1_] _1__bF$buf0 d_lut_BUFX2
ABUFX2_insert19 [_1_] _1__bF$buf1 d_lut_BUFX2
ABUFX2_insert18 [_1_] _1__bF$buf2 d_lut_BUFX2
ABUFX2_insert17 [_1_] _1__bF$buf3 d_lut_BUFX2
ABUFX2_insert16 [_1_] _1__bF$buf4 d_lut_BUFX2
ABUFX2_insert15 [_1_] _1__bF$buf5 d_lut_BUFX2
ABUFX2_insert14 [_1_] _1__bF$buf6 d_lut_BUFX2
ABUFX2_insert13 [_1_] _1__bF$buf7 d_lut_BUFX2
ABUFX2_insert12 [_1_] _1__bF$buf8 d_lut_BUFX2
ABUFX2_insert11 [_1_] _1__bF$buf9 d_lut_BUFX2
ABUFX2_insert10 [_1_] _1__bF$buf10 d_lut_BUFX2
ABUFX2_insert9 [RDY] RDY_bF$buf0 d_lut_BUFX2
ABUFX2_insert8 [RDY] RDY_bF$buf1 d_lut_BUFX2
ABUFX2_insert7 [RDY] RDY_bF$buf2 d_lut_BUFX2
ABUFX2_insert6 [RDY] RDY_bF$buf3 d_lut_BUFX2
ABUFX2_insert5 [RDY] RDY_bF$buf4 d_lut_BUFX2
ABUFX2_insert4 [RDY] RDY_bF$buf5 d_lut_BUFX2
ABUFX2_insert3 [RDY] RDY_bF$buf6 d_lut_BUFX2
ABUFX2_insert2 [RDY] RDY_bF$buf7 d_lut_BUFX2
ABUFX2_insert1 [RDY] RDY_bF$buf8 d_lut_BUFX2
ABUFX2_insert0 [RDY] RDY_bF$buf9 d_lut_BUFX2
A_1744_ [DIHOLD_0_] _878_ d_lut_INVX1
A_1745_ [DI_0_ RDY_bF$buf9] _879_ d_lut_NAND2X1
A_1746_ [RDY_bF$buf8 _878_ _879_] DIMUX_0_ d_lut_OAI21X1
A_1747_ [DIHOLD_1_] _880_ d_lut_INVX1
A_1748_ [RDY_bF$buf7 DI_1_] _881_ d_lut_NAND2X1
A_1749_ [RDY_bF$buf6 _880_ _881_] DIMUX_1_ d_lut_OAI21X1
A_1750_ [DIHOLD_2_] _882_ d_lut_INVX1
A_1751_ [RDY_bF$buf5 DI_2_] _883_ d_lut_NAND2X1
A_1752_ [RDY_bF$buf4 _882_ _883_] DIMUX_2_ d_lut_OAI21X1
A_1753_ [DIHOLD_3_] _884_ d_lut_INVX1
A_1754_ [RDY_bF$buf3 DI_3_] _885_ d_lut_NAND2X1
A_1755_ [RDY_bF$buf2 _884_ _885_] DIMUX_3_ d_lut_OAI21X1
A_1756_ [RDY_bF$buf1] _886_ d_lut_INVX8
A_1757_ [RDY_bF$buf0 DIHOLD_4_] _887_ d_lut_OR2X2
A_1758_ [_886__bF$buf6 DI_4_ _887_] _888_ d_lut_OAI21X1
A_1759_ [_888_] DIMUX_4_ d_lut_INVX1
A_1760_ [DIHOLD_5_] _889_ d_lut_INVX1
A_1761_ [RDY_bF$buf9 DI_5_] _890_ d_lut_NAND2X1
A_1762_ [RDY_bF$buf8 _889_ _890_] DIMUX_5_ d_lut_OAI21X1
A_1763_ [DIHOLD_6_] _891_ d_lut_INVX1
A_1764_ [RDY_bF$buf7 DI_6_] _892_ d_lut_NAND2X1
A_1765_ [RDY_bF$buf6 _891_ _892_] DIMUX_6_ d_lut_OAI21X1
A_1766_ [DI_7_ DIHOLD_7_ RDY_bF$buf5] _893_ d_lut_MUX2X1
A_1767_ [_893_] DIMUX_7_ d_lut_INVX1
A_1768_ [C] _894_ d_lut_INVX1
A_1769_ [shift] _895_ d_lut_INVX1
A_1770_ [state_2_] _896_ d_lut_INVX1
A_1771_ [state_3_] _897_ d_lut_INVX1
A_1772_ [_896_ _897_] _898_ d_lut_NAND2X1
A_1773_ [state_1_ state_0_] _899_ d_lut_NAND2X1
A_1774_ [_899_ _898_] _900_ d_lut_NOR2X1
A_1775_ [state_4_] _901_ d_lut_INVX2
A_1776_ [state_5_ _901_] _902_ d_lut_NAND2X1
A_1777_ [_902__bF$buf3] _903_ d_lut_INVX4
A_1778_ [state_2_ _897_] _904_ d_lut_NAND2X1
A_1779_ [state_1_] _905_ d_lut_INVX1
A_1780_ [state_0_] _906_ d_lut_INVX1
A_1781_ [_905_ _906_] _907_ d_lut_NAND2X1
A_1782_ [_904_ _907_] _908_ d_lut_NOR2X1
A_1783_ [_900_ _908_ _903__bF$buf3] _909_ d_lut_OAI21X1
A_1784_ [state_2_ state_3_] _910_ d_lut_AND2X2
A_1785_ [state_1_ _906_] _911_ d_lut_NOR2X1
A_1786_ [_910_ _911_] _912_ d_lut_NAND2X1
A_1787_ [state_5_] _913_ d_lut_INVX2
A_1788_ [_913_ _901_] _914_ d_lut_NAND2X1
A_1789_ [_912_ _914__bF$buf4 _909_] _915_ d_lut_OAI21X1
A_1790_ [_914__bF$buf3 _912_] _916_ d_lut_NOR2X1
A_1791_ [_916_] _917_ d_lut_INVX1
A_1792_ [load_only _917_] _918_ d_lut_NOR2X1
A_1793_ [rotate _915_ _918_ _895_] _919_ d_lut_AOI22X1
A_1794_ [rotate] _920_ d_lut_INVX1
A_1795_ [compare] _921_ d_lut_INVX1
A_1796_ [inc _895_] _922_ d_lut_NAND2X1
A_1797_ [_909_ _922_ _921_ _917_] _923_ d_lut_OAI22X1
A_1798_ [state_1_ _906_] _924_ d_lut_NAND2X1
A_1799_ [_904_ _914__bF$buf2 _924_] _925_ d_lut_NOR3X1
A_1800_ [state_3_ _896_] _926_ d_lut_NOR2X1
A_1801_ [state_1_ state_0_] _927_ d_lut_NOR2X1
A_1802_ [_927_ _926_] _928_ d_lut_NAND2X1
A_1803_ [state_5_ state_4_] _929_ d_lut_NOR2X1
A_1804_ [_929_ _900_] _930_ d_lut_NAND2X1
A_1805_ [state_4_ _913_] _931_ d_lut_NAND2X1
A_1806_ [_928_ _931__bF$buf4 _930_] _932_ d_lut_OAI21X1
A_1807_ [_925_ _932_ CO] _933_ d_lut_OAI21X1
A_1808_ [state_3_ _896_] _934_ d_lut_NAND2X1
A_1809_ [_924_ _934_] _935_ d_lut_NOR2X1
A_1810_ [_903__bF$buf2 _935_] _936_ d_lut_NAND2X1
A_1811_ [state_1_ state_0_] _937_ d_lut_AND2X2
A_1812_ [_937_ _910_] _938_ d_lut_NAND2X1
A_1813_ [_938_] _939_ d_lut_INVX1
A_1814_ [_929_ _939_] _940_ d_lut_NAND2X1
A_1815_ [_924_ _898_] _941_ d_lut_NOR2X1
A_1816_ [_941_] _942_ d_lut_INVX2
A_1817_ [_931__bF$buf3 _942_] _943_ d_lut_NOR2X1
A_1818_ [_943_] _944_ d_lut_INVX1
A_1819_ [_940_ _936_ _944_] _945_ d_lut_NAND3X1
A_1820_ [_926_ _911_] _946_ d_lut_NAND2X1
A_1821_ [_902__bF$buf2 _946_] _947_ d_lut_NOR2X1
A_1822_ [state_0_ _905_] _948_ d_lut_NOR2X1
A_1823_ [_910_ _948_] _949_ d_lut_NAND2X1
A_1824_ [_931__bF$buf2 _949_] _950_ d_lut_NOR2X1
A_1825_ [_950_ _947_] _951_ d_lut_NOR2X1
A_1826_ [_904_ _924_] _952_ d_lut_NOR2X1
A_1827_ [_903__bF$buf1 _952_] _953_ d_lut_NAND2X1
A_1828_ [state_2_ _897_ _937_] _954_ d_lut_NAND3X1
A_1829_ [_954_] _955_ d_lut_INVX1
A_1830_ [_903__bF$buf0 _955_] _956_ d_lut_NAND2X1
A_1831_ [state_2_ _897_] _957_ d_lut_NOR2X1
A_1832_ [_937_ _957_] _958_ d_lut_NAND2X1
A_1833_ [_902__bF$buf1 _958_ _956_] _959_ d_lut_OAI21X1
A_1834_ [_959_] _960_ d_lut_INVX1
A_1835_ [_953_ _951_ _960_] _961_ d_lut_NAND3X1
A_1836_ [_961_ _945_] _962_ d_lut_NOR2X1
A_1837_ [_933_ _962_] _963_ d_lut_NAND2X1
A_1838_ [_920_ _923_ _963_] _964_ d_lut_AOI21X1
A_1839_ [_894_ _919_ _964_] CI d_lut_OAI21X1
A_1840_ [PC_0_] _965_ d_lut_INVX1
A_1841_ [DIMUX_0_] _966_ d_lut_INVX2
A_1842_ [_914__bF$buf1 _946_] _967_ d_lut_NOR2X1
A_1843_ [_967_] _968_ d_lut_INVX2
A_1844_ [_931__bF$buf1] _969_ d_lut_INVX4
A_1845_ [state_2_ state_3_] _970_ d_lut_NAND2X1
A_1846_ [_970_ _924_] _971_ d_lut_NOR2X1
A_1847_ [_969_ _971_] _972_ d_lut_NAND2X1
A_1848_ [state_2_ state_3_] _973_ d_lut_NOR2X1
A_1849_ [_973_ _911_] _974_ d_lut_NAND2X1
A_1850_ [_914__bF$buf0 _974_ _972_] _975_ d_lut_OAI21X1
A_1851_ [state_0_ _905_] _976_ d_lut_NAND2X1
A_1852_ [_904_ _976_] _977_ d_lut_NOR2X1
A_1853_ [_903__bF$buf3 _977_] _978_ d_lut_NAND2X1
A_1854_ [_902__bF$buf0 _974_ _978_] _979_ d_lut_OAI21X1
A_1855_ [_975_ _979_] _980_ d_lut_NOR2X1
A_1856_ [_900_] _981_ d_lut_INVX1
A_1857_ [_902__bF$buf3 _981_] _982_ d_lut_NOR2X1
A_1858_ [_967_ _982_] _983_ d_lut_NOR2X1
A_1859_ [_911_ _957_] _984_ d_lut_NAND2X1
A_1860_ [_914__bF$buf4 _984_ _983_] _985_ d_lut_OAI21X1
A_1861_ [_985_] _986_ d_lut_INVX1
A_1862_ [_913_ _935_] _987_ d_lut_NAND2X1
A_1863_ [_902__bF$buf2 _928_] _988_ d_lut_NOR2X1
A_1864_ [_927_ _910_] _989_ d_lut_NAND2X1
A_1865_ [_931__bF$buf0 _989_] _990_ d_lut_NOR2X1
A_1866_ [_990_ _988_] _991_ d_lut_NOR2X1
A_1867_ [_989_] _992_ d_lut_INVX1
A_1868_ [_934_ _907_] _993_ d_lut_NOR2X1
A_1869_ [_993_ _992_ _929_] _994_ d_lut_OAI21X1
A_1870_ [_987_ _994_ _991_] _995_ d_lut_NAND3X1
A_1871_ [_901_ _952_] _996_ d_lut_NAND2X1
A_1872_ [_935_ _941_ _903__bF$buf2] _997_ d_lut_OAI21X1
A_1873_ [_940_] _998_ d_lut_INVX1
A_1874_ [_931__bF$buf4 _958_ _960_] _999_ d_lut_OAI21X1
A_1875_ [_999_ _998_] _1000_ d_lut_OR2X2
A_1876_ [_1000_] _1001_ d_lut_INVX1
A_1877_ [_996_ _997_ _1001_] _1002_ d_lut_NAND3X1
A_1878_ [_995_ _1002_] _1003_ d_lut_NOR2X1
A_1879_ [_980_ _986_ _1003_] _1004_ d_lut_NAND3X1
A_1880_ [_965_ _968_ _966_ _1004_] BI_0_ d_lut_OAI22X1
A_1881_ [PC_1_] _1005_ d_lut_INVX1
A_1882_ [DIMUX_1_] _1006_ d_lut_INVX2
A_1883_ [_1005_ _968_ _1006_ _1004_] BI_1_ d_lut_OAI22X1
A_1884_ [PC_2_] _1007_ d_lut_INVX2
A_1885_ [DIMUX_2_] _1008_ d_lut_INVX1
A_1886_ [_1007_ _968_ _1008_ _1004_] BI_2_ d_lut_OAI22X1
A_1887_ [PC_3_] _1009_ d_lut_INVX2
A_1888_ [DIMUX_3_] _1010_ d_lut_INVX2
A_1889_ [_1009_ _968_ _1010_ _1004_] BI_3_ d_lut_OAI22X1
A_1890_ [PC_4_] _1011_ d_lut_INVX1
A_1891_ [_1011_ _968_ _888_ _1004_] BI_4_ d_lut_OAI22X1
A_1892_ [PC_5_] _1012_ d_lut_INVX2
A_1893_ [DIMUX_5_] _1013_ d_lut_INVX2
A_1894_ [_1012_ _968_ _1013_ _1004_] BI_5_ d_lut_OAI22X1
A_1895_ [PC_6_] _1014_ d_lut_INVX2
A_1896_ [DIMUX_6_] _1015_ d_lut_INVX2
A_1897_ [_1014_ _968_ _1015_ _1004_] BI_6_ d_lut_OAI22X1
A_1898_ [PC_7_] _1016_ d_lut_INVX2
A_1899_ [_1016_ _968_ _893_ _1004_] BI_7_ d_lut_OAI22X1
A_1900_ [src_reg_1_] _1017_ d_lut_INVX1
A_1901_ [_969_ _935_] _1018_ d_lut_NAND2X1
A_1902_ [_903__bF$buf1 _969_ _992_] _1019_ d_lut_OAI21X1
A_1903_ [_931__bF$buf3 _938_] _1020_ d_lut_NOR2X1
A_1904_ [_914__bF$buf3 _958_] _1021_ d_lut_NOR2X1
A_1905_ [_1020_ _1021_] _1022_ d_lut_NOR2X1
A_1906_ [_1018_ _1019_ _1022_] _1023_ d_lut_NAND3X1
A_1907_ [_901_ _993_] _1024_ d_lut_NAND2X1
A_1908_ [_997_ _1024_ _951_] _1025_ d_lut_NAND3X1
A_1909_ [_1023_ _1025_] _1026_ d_lut_NOR2X1
A_1910_ [_927_ _910_ _929_] _1027_ d_lut_NAND3X1
A_1911_ [_969_ _900_] _1028_ d_lut_NAND2X1
A_1912_ [_914__bF$buf2 _949_ _1028_] _1029_ d_lut_OAI21X1
A_1913_ [_913_ _901_] _1030_ d_lut_NOR2X1
A_1914_ [_898_ _907_] _1031_ d_lut_NOR2X1
A_1915_ [_1030_ _1031_] _1032_ d_lut_NAND2X1
A_1916_ [_914__bF$buf1 _942_ _1032_] _1033_ d_lut_OAI21X1
A_1917_ [_1029_ _1033_] _1034_ d_lut_NOR2X1
A_1918_ [_1034_ _1027__bF$buf4] _1035_ d_lut_AND2X2
A_1919_ [_1035_ _1026_] _1036_ d_lut_NAND2X1
A_1920_ [_1027__bF$buf3] _1037_ d_lut_INVX1
A_1921_ [_1034_] _1038_ d_lut_INVX1
A_1922_ [dst_reg_1_ _1037_ _1038_] _1039_ d_lut_AOI21X1
A_1923_ [_1017_ _1036_ _1039_] _1040_ d_lut_OAI21X1
A_1924_ [_1029_ _1033_ index_y] _1041_ d_lut_OAI21X1
A_1925_ [dst_reg_0_] _1042_ d_lut_INVX1
A_1926_ [_1042_ _1027__bF$buf2] _1043_ d_lut_NOR2X1
A_1927_ [_1043_ _1023_ _1025_] _1044_ d_lut_NOR3X1
A_1928_ [_1044_ _1041_] _1045_ d_lut_AND2X2
A_1929_ [src_reg_0_ _1035_ _1026_] _1046_ d_lut_NAND3X1
A_1930_ [_1045_ _1046_ _1040_] _1047_ d_lut_AOI21X1
A_1931_ [src_reg_1_ _1035_ _1026_] _1048_ d_lut_NAND3X1
A_1932_ [_1048_ _1039_ _1045_ _1046_] _1049_ d_lut_AOI22X1
A_1933_ [\AXYS_3_\_0_ _1049_ _1047_ \AXYS_1_\_0_] _1050_ d_lut_AOI22X1
A_1934_ [_1048_ _1039_] _1051_ d_lut_AND2X2
A_1935_ [_1041_ _1044_ _1036_] _1052_ d_lut_NAND3X1
A_1936_ [src_reg_0_ _1036_ _1052_] _1053_ d_lut_OAI21X1
A_1937_ [\AXYS_0_\_0_ _1051_ _1053_] _1054_ d_lut_NAND3X1
A_1938_ [src_reg_0_] _1055_ d_lut_INVX1
A_1939_ [_1055_ _1035_ _1026_] _1056_ d_lut_NAND3X1
A_1940_ [_1048_ _1039_ _1052_ _1056_] _1057_ d_lut_AOI22X1
A_1941_ [\AXYS_2_\_0_ _1057_] _1058_ d_lut_NAND2X1
A_1942_ [_1054_ _1058_ _1050_] _1059_ d_lut_NAND3X1
A_1943_ [_1059_] _1060_ d_lut_INVX1
A_1944_ [_901_ _941_ _988_] _1061_ d_lut_AOI21X1
A_1945_ [_1061_] _1062_ d_lut_INVX1
A_1946_ [_902__bF$buf1 _974_] _1063_ d_lut_NOR2X1
A_1947_ [_990_ _1063_] _1064_ d_lut_NOR2X1
A_1948_ [_1064_ _951_] _1065_ d_lut_NAND2X1
A_1949_ [_1062_ _1065_] _1066_ d_lut_NOR2X1
A_1950_ [_903__bF$buf0 _969_ _935_] _1067_ d_lut_OAI21X1
A_1951_ [_1067_] _1068_ d_lut_INVX1
A_1952_ [_993_] _1069_ d_lut_INVX2
A_1953_ [_914__bF$buf0 _1069_ _1032_] _1070_ d_lut_OAI21X1
A_1954_ [_1068_ _1070_] _1071_ d_lut_NOR2X1
A_1955_ [_1029_ _918_] _1072_ d_lut_NOR2X1
A_1956_ [_1071_ _1072_ _1066_] _1073_ d_lut_NAND3X1
A_1957_ [_1073_] _1074_ d_lut_INVX2
A_1958_ [_948_ _957_] _1075_ d_lut_NAND2X1
A_1959_ [_914__bF$buf4 _1075_ _953_] _1076_ d_lut_OAI21X1
A_1960_ [_1076_] _1077_ d_lut_INVX1
A_1961_ [_899_ _934_] _1078_ d_lut_NOR2X1
A_1962_ [_969_ _1078_] _1079_ d_lut_NAND2X1
A_1963_ [_914__bF$buf3 _984_ _1079_] _1080_ d_lut_OAI21X1
A_1964_ [_1080_ _959_] _1081_ d_lut_NOR2X1
A_1965_ [_940_ _1077_ _1081_] _1082_ d_lut_NAND3X1
A_1966_ [ABH_0_ _925_] _1083_ d_lut_NAND2X1
A_1967_ [_966_ _983_ _1083_] _1084_ d_lut_OAI21X1
A_1968_ [_1082_ ADD_0_ _1084_] _1085_ d_lut_AOI21X1
A_1969_ [_1074_ _1060_ _1085_] AI_0_ d_lut_OAI21X1
A_1970_ [\AXYS_1_\_1_ _1047_] _1086_ d_lut_NAND2X1
A_1971_ [_1049_ \AXYS_3_\_1_ \AXYS_2_\_1_ _1057_] _1087_ d_lut_AOI22X1
A_1972_ [\AXYS_0_\_1_ _1051_ _1053_] _1088_ d_lut_NAND3X1
A_1973_ [_1088_ _1086_ _1087_] _1089_ d_lut_NAND3X1
A_1974_ [_1089_] _1090_ d_lut_INVX1
A_1975_ [ABH_1_] _1091_ d_lut_INVX1
A_1976_ [_929_ _952_] _1092_ d_lut_NAND2X1
A_1977_ [_1091_ _1092_] _1093_ d_lut_NOR2X1
A_1978_ [_1093_] _1094_ d_lut_INVX1
A_1979_ [_1006_ _983_ _1094_] _1095_ d_lut_OAI21X1
A_1980_ [_1082_ ADD_1_ _1095_] _1096_ d_lut_AOI21X1
A_1981_ [_1074_ _1090_ _1096_] AI_1_ d_lut_OAI21X1
A_1982_ [\AXYS_1_\_2_ _1047_] _1097_ d_lut_NAND2X1
A_1983_ [_1049_ \AXYS_3_\_2_ \AXYS_2_\_2_ _1057_] _1098_ d_lut_AOI22X1
A_1984_ [\AXYS_0_\_2_ _1051_ _1053_] _1099_ d_lut_NAND3X1
A_1985_ [_1099_ _1097_ _1098_] _1100_ d_lut_NAND3X1
A_1986_ [_1100_] _1101_ d_lut_INVX1
A_1987_ [ABH_2_] _1102_ d_lut_INVX1
A_1988_ [_1102_ _1092_ _1008_ _983_] _1103_ d_lut_OAI22X1
A_1989_ [_1082_ ADD_2_ _1103_] _1104_ d_lut_AOI21X1
A_1990_ [_1074_ _1101_ _1104_] AI_2_ d_lut_OAI21X1
A_1991_ [\AXYS_1_\_3_ _1047_] _1105_ d_lut_NAND2X1
A_1992_ [_1049_ \AXYS_3_\_3_ \AXYS_2_\_3_ _1057_] _1106_ d_lut_AOI22X1
A_1993_ [\AXYS_0_\_3_ _1051_ _1053_] _1107_ d_lut_NAND3X1
A_1994_ [_1107_ _1105_ _1106_] _1108_ d_lut_NAND3X1
A_1995_ [_1108_] _1109_ d_lut_INVX1
A_1996_ [ABH_3_ _925_] _1110_ d_lut_NAND2X1
A_1997_ [_1010_ _983_ _1110_] _1111_ d_lut_OAI21X1
A_1998_ [_1082_ ADD_3_ _1111_] _1112_ d_lut_AOI21X1
A_1999_ [_1074_ _1109_ _1112_] AI_3_ d_lut_OAI21X1
A_2000_ [\AXYS_1_\_4_ _1047_] _1113_ d_lut_NAND2X1
A_2001_ [_1049_ \AXYS_3_\_4_ \AXYS_2_\_4_ _1057_] _1114_ d_lut_AOI22X1
A_2002_ [\AXYS_0_\_4_ _1051_ _1053_] _1115_ d_lut_NAND3X1
A_2003_ [_1115_ _1113_ _1114_] _1116_ d_lut_NAND3X1
A_2004_ [_1116_] _1117_ d_lut_INVX1
A_2005_ [ABH_4_ _925_] _1118_ d_lut_NAND2X1
A_2006_ [_888_ _983_ _1118_] _1119_ d_lut_OAI21X1
A_2007_ [_1082_ ADD_4_ _1119_] _1120_ d_lut_AOI21X1
A_2008_ [_1074_ _1117_ _1120_] AI_4_ d_lut_OAI21X1
A_2009_ [\AXYS_1_\_5_ _1047_] _1121_ d_lut_NAND2X1
A_2010_ [_1049_ \AXYS_3_\_5_ \AXYS_2_\_5_ _1057_] _1122_ d_lut_AOI22X1
A_2011_ [\AXYS_0_\_5_ _1051_ _1053_] _1123_ d_lut_NAND3X1
A_2012_ [_1123_ _1121_ _1122_] _1124_ d_lut_NAND3X1
A_2013_ [_1124_] _1125_ d_lut_INVX1
A_2014_ [ABH_5_ _925_] _1126_ d_lut_NAND2X1
A_2015_ [_1013_ _983_ _1126_] _1127_ d_lut_OAI21X1
A_2016_ [_1082_ ADD_5_ _1127_] _1128_ d_lut_AOI21X1
A_2017_ [_1074_ _1125_ _1128_] AI_5_ d_lut_OAI21X1
A_2018_ [\AXYS_1_\_6_ _1047_] _1129_ d_lut_NAND2X1
A_2019_ [_1049_ \AXYS_3_\_6_ \AXYS_2_\_6_ _1057_] _1130_ d_lut_AOI22X1
A_2020_ [\AXYS_0_\_6_ _1051_ _1053_] _1131_ d_lut_NAND3X1
A_2021_ [_1131_ _1129_ _1130_] _1132_ d_lut_NAND3X1
A_2022_ [_1132_] _1133_ d_lut_INVX1
A_2023_ [ABH_6_] _1134_ d_lut_INVX1
A_2024_ [_1134_ _1092_] _1135_ d_lut_NOR2X1
A_2025_ [_1135_] _1136_ d_lut_INVX1
A_2026_ [_1015_ _983_ _1136_] _1137_ d_lut_OAI21X1
A_2027_ [_1082_ ADD_6_ _1137_] _1138_ d_lut_AOI21X1
A_2028_ [_1074_ _1133_ _1138_] AI_6_ d_lut_OAI21X1
A_2029_ [\AXYS_1_\_7_ _1047_] _1139_ d_lut_NAND2X1
A_2030_ [_1049_ \AXYS_3_\_7_ \AXYS_2_\_7_ _1057_] _1140_ d_lut_AOI22X1
A_2031_ [\AXYS_0_\_7_ _1051_ _1053_] _1141_ d_lut_NAND3X1
A_2032_ [_1141_ _1139_ _1140_] _1142_ d_lut_NAND3X1
A_2033_ [_1142_] _1143_ d_lut_INVX1
A_2034_ [ABH_7_] _1144_ d_lut_INVX1
A_2035_ [_1144_ _1092_] _1145_ d_lut_NOR2X1
A_2036_ [_1145_] _1146_ d_lut_INVX1
A_2037_ [_893_ _983_ _1146_] _1147_ d_lut_OAI21X1
A_2038_ [_1082_ AN _1147_] _1148_ d_lut_AOI21X1
A_2039_ [_1074_ _1143_ _1148_] AI_7_ d_lut_OAI21X1
A_2040_ [RDY_bF$buf4 _1037_] _1149_ d_lut_NAND2X1
A_2041_ [_1149__bF$buf4] _1150_ d_lut_INVX8
A_2042_ [IRHOLD_1_] _1151_ d_lut_INVX1
A_2043_ [IRQ] _1152_ d_lut_INVX1
A_2044_ [NMI_edge] _1153_ d_lut_INVX1
A_2045_ [I _1152_ _1153_] _1154_ d_lut_OAI21X1
A_2046_ [IRHOLD_valid _1151_ _1154_] _1155_ d_lut_AOI21X1
A_2047_ [IRHOLD_valid DIMUX_1_ _1155_] _1156_ d_lut_OAI21X1
A_2048_ [IRHOLD_0_] _1157_ d_lut_INVX1
A_2049_ [_1157_ IRHOLD_valid _1154_] _1158_ d_lut_AOI21X1
A_2050_ [IRHOLD_valid DIMUX_0_ _1158_] _1159_ d_lut_OAI21X1
A_2051_ [_1156_ _1159_] _1160_ d_lut_NAND2X1
A_2052_ [_1160_] _1161_ d_lut_INVX1
A_2053_ [IRHOLD_3_] _1162_ d_lut_INVX1
A_2054_ [IRHOLD_valid _1162_ _1154_] _1163_ d_lut_AOI21X1
A_2055_ [IRHOLD_valid DIMUX_3_ _1163_] _1164_ d_lut_OAI21X1
A_2056_ [I] _1165_ d_lut_INVX1
A_2057_ [_1152_ _1153_] _1166_ d_lut_NAND2X1
A_2058_ [_1165_ NMI_edge _1166_] _1167_ d_lut_OAI21X1
A_2059_ [IRHOLD_valid] _1168_ d_lut_INVX2
A_2060_ [IRHOLD_2_] _1169_ d_lut_INVX1
A_2061_ [_1168_ DIMUX_2_] _1170_ d_lut_NAND2X1
A_2062_ [_1168_ _1169_ _1170_] _1171_ d_lut_OAI21X1
A_2063_ [_1167_ _1171_] _1172_ d_lut_NAND2X1
A_2064_ [_1164_ _1172_] _1173_ d_lut_NAND2X1
A_2065_ [_1173_] _1174_ d_lut_INVX1
A_2066_ [_1161_ _1174_] _1175_ d_lut_NAND2X1
A_2067_ [IRHOLD_valid IRHOLD_4_] _1176_ d_lut_NAND2X1
A_2068_ [IRHOLD_valid _888_ _1176_] _1177_ d_lut_OAI21X1
A_2069_ [_1167_ _1177_] _1178_ d_lut_NAND2X1
A_2070_ [_1178_] _1179_ d_lut_INVX2
A_2071_ [_1168_ IRHOLD_5_ _1167_] _1180_ d_lut_OAI21X1
A_2072_ [_1168_ _1013_ _1180_] _1181_ d_lut_AOI21X1
A_2073_ [_1181_ _1179_] _1182_ d_lut_NOR2X1
A_2074_ [IRHOLD_valid IRHOLD_7_] _1183_ d_lut_NAND2X1
A_2075_ [IRHOLD_valid _893_ _1183_] _1184_ d_lut_OAI21X1
A_2076_ [_1167_ _1184_] _1185_ d_lut_NAND2X1
A_2077_ [DIMUX_6_ IRHOLD_6_ _1168_] _1186_ d_lut_MUX2X1
A_2078_ [_1154_ _1186_] _1187_ d_lut_NOR2X1
A_2079_ [_1185_ _1187_] _1188_ d_lut_NAND2X1
A_2080_ [_1188_] _1189_ d_lut_INVX1
A_2081_ [_1189_ _1182_] _1190_ d_lut_NAND2X1
A_2082_ [_1175_ _1190_] _1191_ d_lut_NOR2X1
A_2083_ [_886__bF$buf5 _947_ _1191_ _1150__bF$buf4] _1192_ d_lut_AOI22X1
A_2084_ [_931__bF$buf2 _928_] _1193_ d_lut_NOR2X1
A_2085_ [CO store _1193_] _1194_ d_lut_OAI21X1
A_2086_ [RDY_bF$buf3 _1194_] _1195_ d_lut_NAND2X1
A_2087_ [_931__bF$buf1 _946_] _1196_ d_lut_NOR2X1
A_2088_ [RDY_bF$buf2 _1196_ _1195_] _1197_ d_lut_OAI21X1
A_2089_ [_1197_ _1192_] _1198_ d_lut_NAND2X1
A_2090_ [_901_ _974_] _1199_ d_lut_NOR2X1
A_2091_ [_1199_] _1200_ d_lut_INVX1
A_2092_ [_902__bF$buf0 _938_] _1201_ d_lut_NOR2X1
A_2093_ [_929_ _908_] _1202_ d_lut_NAND2X1
A_2094_ [_914__bF$buf2 _974_ _1202_] _1203_ d_lut_OAI21X1
A_2095_ [_1201_ _1203_] _1204_ d_lut_NOR2X1
A_2096_ [_913_ _1200_ _1204_] _1205_ d_lut_OAI21X1
A_2097_ [_1205_] _1206_ d_lut_INVX1
A_2098_ [write_back] _1207_ d_lut_INVX1
A_2099_ [RDY_bF$buf1 _1207_] _1208_ d_lut_NAND2X1
A_2100_ [_1208_ _1206_] _1209_ d_lut_NOR2X1
A_2101_ [_1209_] _1210_ d_lut_INVX1
A_2102_ [_1168_ IRHOLD_3_ _1167_] _1211_ d_lut_OAI21X1
A_2103_ [_1168_ _1010_ _1211_] _1212_ d_lut_AOI21X1
A_2104_ [_1172_ _1212_] _1213_ d_lut_NAND2X1
A_2105_ [_1159_] _1214_ d_lut_INVX1
A_2106_ [_1156_ _1214_] _1215_ d_lut_NAND2X1
A_2107_ [_1159_ _1164_] _1216_ d_lut_NAND2X1
A_2108_ [_1185_] _1217_ d_lut_INVX2
A_2109_ [_1172_ _1217_] _1218_ d_lut_NAND2X1
A_2110_ [_1216_ _1218_ _1213_ _1215_] _1219_ d_lut_OAI22X1
A_2111_ [_1150__bF$buf3 _1178_ _1219_] _1220_ d_lut_NAND3X1
A_2112_ [_970_ _976_] _1221_ d_lut_NOR2X1
A_2113_ [_969_ _1221_] _1222_ d_lut_NAND2X1
A_2114_ [_902__bF$buf3 _912_ _1222_] _1223_ d_lut_OAI21X1
A_2115_ [_1196_] _1224_ d_lut_INVX1
A_2116_ [_974_] _1225_ d_lut_INVX1
A_2117_ [_969_ _1225_] _1226_ d_lut_NAND2X1
A_2118_ [_903__bF$buf3 _971_] _1227_ d_lut_NAND2X1
A_2119_ [_1227_ _1224_ _1226_] _1228_ d_lut_NAND3X1
A_2120_ [_1223_ _1228_] _1229_ d_lut_NOR2X1
A_2121_ [_1229_] _1230_ d_lut_INVX1
A_2122_ [_886__bF$buf4 _1205_] _1231_ d_lut_NOR2X1
A_2123_ [_886__bF$buf3 _916_] _1232_ d_lut_NAND2X1
A_2124_ [_902__bF$buf2 _989_] _1233_ d_lut_NOR2X1
A_2125_ [_1233_] _1234_ d_lut_INVX1
A_2126_ [_902__bF$buf1 _912_] _1235_ d_lut_NOR2X1
A_2127_ [_886__bF$buf2 _1235_] _1236_ d_lut_NAND2X1
A_2128_ [_886__bF$buf1 _1234_ _1236_] _1237_ d_lut_OAI21X1
A_2129_ [RDY_bF$buf0 _990_] _1238_ d_lut_NAND2X1
A_2130_ [RDY_bF$buf9 _1222_ _1238_] _1239_ d_lut_OAI21X1
A_2131_ [_1239_ _1237_] _1240_ d_lut_NOR2X1
A_2132_ [CO store] _1241_ d_lut_OR2X2
A_2133_ [write_back _1241_] _1242_ d_lut_NOR2X1
A_2134_ [_886__bF$buf0 _930_] _1243_ d_lut_NOR2X1
A_2135_ [_886__bF$buf6 _1241_] _1244_ d_lut_NOR2X1
A_2136_ [_1193_ _1244_ _1243_ _1242_] _1245_ d_lut_AOI22X1
A_2137_ [_1232_ _1245_ _1240_] _1246_ d_lut_NAND3X1
A_2138_ [_1231_ _1230_ _1246_] _1247_ d_lut_AOI21X1
A_2139_ [_1220_ _1247_ _1210_] _1248_ d_lut_NAND3X1
A_2140_ [_1198_ _1248_] _1249_ d_lut_OR2X2
A_2141_ [_1249_] _1250_ d_lut_INVX1
A_2142_ [_1160_ _1213_] _1251_ d_lut_NOR2X1
A_2143_ [_1182_ _1185_ _1251_] _1252_ d_lut_NAND3X1
A_2144_ [_1252_] _1253_ d_lut_INVX1
A_2145_ [_886__bF$buf5 _1063_ _1253_ _1150__bF$buf2] _1254_ d_lut_AOI22X1
A_2146_ [_1178_ _1175_] _1255_ d_lut_NOR2X1
A_2147_ [_886__bF$buf4 _967_ _1255_ _1150__bF$buf1] _1256_ d_lut_AOI22X1
A_2148_ [_902__bF$buf0 _1069_] _1257_ d_lut_NOR2X1
A_2149_ [_902__bF$buf3 _984_ _886__bF$buf3] _1258_ d_lut_OAI21X1
A_2150_ [_886__bF$buf2 _1257_ _1258_] _1259_ d_lut_OAI21X1
A_2151_ [_931__bF$buf0 _1069_] _1260_ d_lut_NOR2X1
A_2152_ [_931__bF$buf4 _984_ _886__bF$buf1] _1261_ d_lut_OAI21X1
A_2153_ [_886__bF$buf0 _1260_ _1261_] _1262_ d_lut_OAI21X1
A_2154_ [_914__bF$buf1 _1069_] _1263_ d_lut_NOR2X1
A_2155_ [_914__bF$buf0 _984_ _886__bF$buf6] _1264_ d_lut_OAI21X1
A_2156_ [_886__bF$buf5 _1263_ _1264_] _1265_ d_lut_OAI21X1
A_2157_ [_1262_ _1265_ _1259_] _1266_ d_lut_NAND3X1
A_2158_ [_1030_ _1225_] _1267_ d_lut_NAND2X1
A_2159_ [_1032_] _1268_ d_lut_INVX1
A_2160_ [RDY_bF$buf8 _1268_] _1269_ d_lut_NAND2X1
A_2161_ [RDY_bF$buf7 _1267_ _1269_] _1270_ d_lut_OAI21X1
A_2162_ [_931__bF$buf3 _974_ _886__bF$buf4] _1271_ d_lut_OAI21X1
A_2163_ [_1031_] _1272_ d_lut_INVX2
A_2164_ [_931__bF$buf2 _1272_ RDY_bF$buf6] _1273_ d_lut_OAI21X1
A_2165_ [_1271_ _1273_ _1270_] _1274_ d_lut_AOI21X1
A_2166_ [_914__bF$buf4 _974_] _1275_ d_lut_NOR2X1
A_2167_ [_914__bF$buf3 _1272_ RDY_bF$buf5] _1276_ d_lut_OAI21X1
A_2168_ [RDY_bF$buf4 _1275_ _1276_] _1277_ d_lut_OAI21X1
A_2169_ [_1277_ _1274_] _1278_ d_lut_NAND2X1
A_2170_ [_1266_ _1278_] _1279_ d_lut_NOR2X1
A_2171_ [_1256_ _1279_ _1254_] _1280_ d_lut_NAND3X1
A_2172_ [_1207_ _1206_ RDY_bF$buf3] _1281_ d_lut_OAI21X1
A_2173_ [RDY_bF$buf2 _982_ _1281_] _1282_ d_lut_OAI21X1
A_2174_ [_1172_ _1212_] _1283_ d_lut_NOR2X1
A_2175_ [_1149__bF$buf3 _1179_] _1284_ d_lut_NOR2X1
A_2176_ [_886__bF$buf3 _1201_ _1284_ _1283_] _1285_ d_lut_AOI22X1
A_2177_ [_914__bF$buf2 _949_ RDY_bF$buf1] _1286_ d_lut_OAI21X1
A_2178_ [RDY_bF$buf0 _998_ _1286_] _1287_ d_lut_OAI21X1
A_2179_ [_1287_ _1285_] _1288_ d_lut_NAND2X1
A_2180_ [_956_ _953_ _886__bF$buf2] _1289_ d_lut_MUX2X1
A_2181_ [_969_ _952_] _1290_ d_lut_NAND2X1
A_2182_ [_931__bF$buf1 _954_] _1291_ d_lut_NOR2X1
A_2183_ [_886__bF$buf1 _1291_] _1292_ d_lut_NAND2X1
A_2184_ [_886__bF$buf0 _1290_ _1292_] _1293_ d_lut_OAI21X1
A_2185_ [_1289_ _1293_] _1294_ d_lut_NOR2X1
A_2186_ [CO backwards] _1295_ d_lut_NAND2X1
A_2187_ [CO backwards] _1296_ d_lut_OR2X2
A_2188_ [_1295_ _1296_] _1297_ d_lut_NAND2X1
A_2189_ [_1297_ _1092_ RDY_bF$buf9] _1298_ d_lut_OAI21X1
A_2190_ [_914__bF$buf1 _954_] _1299_ d_lut_NOR2X1
A_2191_ [RDY_bF$buf8 _1299_ _1298_] _1300_ d_lut_OAI21X1
A_2192_ [_1300_ _1294_] _1301_ d_lut_NAND2X1
A_2193_ [_1301_ _1288_] _1302_ d_lut_NOR2X1
A_2194_ [_929_ _941_] _1303_ d_lut_NAND2X1
A_2195_ [_1303_] _1304_ d_lut_INVX1
A_2196_ [_914__bF$buf0 _981_ _886__bF$buf6] _1305_ d_lut_OAI21X1
A_2197_ [_886__bF$buf5 _1304_ _1305_] _1306_ d_lut_OAI21X1
A_2198_ [_931__bF$buf0 _949_ RDY_bF$buf7] _1307_ d_lut_OAI21X1
A_2199_ [RDY_bF$buf6 _1020_ _1307_] _1308_ d_lut_OAI21X1
A_2200_ [_1028_] _1309_ d_lut_INVX1
A_2201_ [_931__bF$buf4 _942_ RDY_bF$buf5] _1310_ d_lut_OAI21X1
A_2202_ [RDY_bF$buf4 _1309_ _1310_] _1311_ d_lut_OAI21X1
A_2203_ [_1308_ _1306_ _1311_] _1312_ d_lut_NAND3X1
A_2204_ [_914__bF$buf4 _1075_ RDY_bF$buf3] _1313_ d_lut_OAI21X1
A_2205_ [RDY_bF$buf2 _1021_ _1313_] _1314_ d_lut_OAI21X1
A_2206_ [_902__bF$buf2 _1075_ RDY_bF$buf1] _1315_ d_lut_OAI21X1
A_2207_ [_902__bF$buf1 _958_ _886__bF$buf4] _1316_ d_lut_OAI21X1
A_2208_ [_1315_ _1316_] _1317_ d_lut_AND2X2
A_2209_ [_1317_] _1318_ d_lut_INVX1
A_2210_ [_1018_] _1319_ d_lut_INVX4
A_2211_ [_931__bF$buf3 _958_ _886__bF$buf3] _1320_ d_lut_OAI21X1
A_2212_ [_886__bF$buf2 _1319__bF$buf3 _1320_] _1321_ d_lut_OAI21X1
A_2213_ [_1314_ _1321_ _1318_] _1322_ d_lut_NAND3X1
A_2214_ [_1312_ _1322_] _1323_ d_lut_NOR2X1
A_2215_ [_1323_ _1282_ _1302_] _1324_ d_lut_NAND3X1
A_2216_ [_1280_ _1324_] _1325_ d_lut_NOR2X1
A_2217_ [_1325_ _1250_] _1512__0_ d_lut_NAND2X1
A_2218_ [_1213_ _1215_] _1326_ d_lut_NOR2X1
A_2219_ [_1171_ _1167_] _1327_ d_lut_AND2X2
A_2220_ [_1212_ _1327_] _1328_ d_lut_NAND2X1
A_2221_ [_1328_] _1329_ d_lut_INVX1
A_2222_ [_1149__bF$buf2 _1178_] _1330_ d_lut_NOR2X1
A_2223_ [_1329_ _1326_ _1330_] _1331_ d_lut_OAI21X1
A_2224_ [_1173_ _1215_] _1332_ d_lut_NOR2X1
A_2225_ [_886__bF$buf1 _943_ _1332_ _1330_] _1333_ d_lut_AOI22X1
A_2226_ [_914__bF$buf3 _1075_] _1334_ d_lut_NOR2X1
A_2227_ [_914__bF$buf2 _984_ RDY_bF$buf0] _1335_ d_lut_OAI21X1
A_2228_ [RDY_bF$buf9 _1334_ _1335_] _1336_ d_lut_OAI21X1
A_2229_ [_903__bF$buf2 _941_] _1337_ d_lut_NAND2X1
A_2230_ [RDY_bF$buf8 _1063_] _1338_ d_lut_NAND2X1
A_2231_ [RDY_bF$buf7 _1337_ _1338_] _1339_ d_lut_OAI21X1
A_2232_ [_886__bF$buf0 _1304_ _1339_] _1340_ d_lut_AOI21X1
A_2233_ [_1340_ _1336_] _1341_ d_lut_AND2X2
A_2234_ [_1331_ _1333_ _1341_] _1342_ d_lut_NAND3X1
A_2235_ [_1342_] _1343_ d_lut_INVX1
A_2236_ [_929_ _1078_] _1344_ d_lut_NAND2X1
A_2237_ [_931__bF$buf2 _984_ _1344_] _1345_ d_lut_OAI21X1
A_2238_ [_1229_ _1345_ _1231_] _1346_ d_lut_NAND3X1
A_2239_ [_1290_ RDY_bF$buf6] _1347_ d_lut_OR2X2
A_2240_ [_1181_] _1348_ d_lut_INVX1
A_2241_ [_1178_ _1348_] _1349_ d_lut_NAND2X1
A_2242_ [_1188_ _1349_] _1350_ d_lut_NOR2X1
A_2243_ [_1160_ _1328_] _1351_ d_lut_NOR2X1
A_2244_ [_1150__bF$buf0 _1351_ _1350_] _1352_ d_lut_NAND3X1
A_2245_ [_1347_ _1352_ _1346_] _1353_ d_lut_NAND3X1
A_2246_ [_1353_] _1354_ d_lut_INVX1
A_2247_ [_1178_ _1181_] _1355_ d_lut_NAND2X1
A_2248_ [_1217_ _1355_] _1356_ d_lut_NOR2X1
A_2249_ [_1356_ _1251_] _1357_ d_lut_NAND2X1
A_2250_ [RDY_bF$buf5 _972_ _1149__bF$buf1 _1357_] _1358_ d_lut_OAI22X1
A_2251_ [RDY_bF$buf4 _982_] _1359_ d_lut_NAND2X1
A_2252_ [state_4_ _949_] _1360_ d_lut_NOR2X1
A_2253_ [_886__bF$buf6 _1360_] _1361_ d_lut_NAND2X1
A_2254_ [_1284_ _1332_] _1362_ d_lut_NAND2X1
A_2255_ [_1359_ _1361_ _1362_] _1363_ d_lut_NAND3X1
A_2256_ [_1363_ _1358_] _1364_ d_lut_NOR2X1
A_2257_ [_1160_ _1173_] _1365_ d_lut_NOR2X1
A_2258_ [_1154_ _1186_ _1185_] _1366_ d_lut_OAI21X1
A_2259_ [_1366_ _1355_] _1367_ d_lut_NOR2X1
A_2260_ [_1150__bF$buf4 _1365_ _1367_] _1368_ d_lut_NAND3X1
A_2261_ [RDY_bF$buf3 _1018_ _1368_] _1369_ d_lut_OAI21X1
A_2262_ [_1188_ _1355_] _1370_ d_lut_NOR2X1
A_2263_ [_1150__bF$buf3 _1365_ _1370_] _1371_ d_lut_NAND3X1
A_2264_ [RDY_bF$buf2 _936_ _1371_] _1372_ d_lut_OAI21X1
A_2265_ [cond_code_0_] _1373_ d_lut_INVX1
A_2266_ [V] _1374_ d_lut_INVX1
A_2267_ [cond_code_2_ Z] _1375_ d_lut_NAND2X1