* XSpice netlist created from SPICE and liberty sources by spi2xspice.py
*SPICE netlist created from verilog structural netlist module picorv32i_ez by vlog2Spice (qflow)
** Start of included library /usr/local/share/qflow/tech/etri050/etri050_stdcells.sp
* NGSPICE file created from khu_etri050_stdcells.ext - technology: scmos
** End of included library /usr/local/share/qflow/tech/etri050/etri050_stdcells.sp
.subckt picorv32i_ez a_vdd a_gnd a_clk a_mem_addr_0_ a_mem_addr_1_ a_mem_addr_2_ a_mem_addr_3_ a_mem_addr_4_ a_mem_addr_5_ a_mem_addr_6_ a_mem_addr_7_ a_mem_addr_8_ a_mem_addr_9_ a_mem_addr_10_ a_mem_addr_11_ a_mem_addr_12_ a_mem_addr_13_ a_mem_addr_14_ a_mem_addr_15_ a_mem_addr_16_ a_mem_addr_17_ a_mem_addr_18_ a_mem_addr_19_ a_mem_addr_20_ a_mem_addr_21_ a_mem_addr_22_ a_mem_addr_23_ a_mem_addr_24_ a_mem_addr_25_ a_mem_addr_26_ a_mem_addr_27_ a_mem_addr_28_ a_mem_addr_29_ a_mem_addr_30_ a_mem_addr_31_ a_mem_instr a_mem_rdata_0_ a_mem_rdata_1_ a_mem_rdata_2_ a_mem_rdata_3_ a_mem_rdata_4_ a_mem_rdata_5_ a_mem_rdata_6_ a_mem_rdata_7_ a_mem_rdata_8_ a_mem_rdata_9_ a_mem_rdata_10_ a_mem_rdata_11_ a_mem_rdata_12_ a_mem_rdata_13_ a_mem_rdata_14_ a_mem_rdata_15_ a_mem_rdata_16_ a_mem_rdata_17_ a_mem_rdata_18_ a_mem_rdata_19_ a_mem_rdata_20_ a_mem_rdata_21_ a_mem_rdata_22_ a_mem_rdata_23_ a_mem_rdata_24_ a_mem_rdata_25_ a_mem_rdata_26_ a_mem_rdata_27_ a_mem_rdata_28_ a_mem_rdata_29_ a_mem_rdata_30_ a_mem_rdata_31_ a_mem_ready a_mem_valid a_mem_wdata_0_ a_mem_wdata_1_ a_mem_wdata_2_ a_mem_wdata_3_ a_mem_wdata_4_ a_mem_wdata_5_ a_mem_wdata_6_ a_mem_wdata_7_ a_mem_wdata_8_ a_mem_wdata_9_ a_mem_wdata_10_ a_mem_wdata_11_ a_mem_wdata_12_ a_mem_wdata_13_ a_mem_wdata_14_ a_mem_wdata_15_ a_mem_wdata_16_ a_mem_wdata_17_ a_mem_wdata_18_ a_mem_wdata_19_ a_mem_wdata_20_ a_mem_wdata_21_ a_mem_wdata_22_ a_mem_wdata_23_ a_mem_wdata_24_ a_mem_wdata_25_ a_mem_wdata_26_ a_mem_wdata_27_ a_mem_wdata_28_ a_mem_wdata_29_ a_mem_wdata_30_ a_mem_wdata_31_ a_mem_wstrb_0_ a_mem_wstrb_1_ a_mem_wstrb_2_ a_mem_wstrb_3_ a_resetn a_trap
ABUFX2_insert1415 [_8__1_] _8__1_hier0_bF$buf0 d_lut_BUFX2
ABUFX2_insert1414 [_8__1_] _8__1_hier0_bF$buf1 d_lut_BUFX2
ABUFX2_insert1413 [_8__1_] _8__1_hier0_bF$buf2 d_lut_BUFX2
ABUFX2_insert1412 [_8__1_] _8__1_hier0_bF$buf3 d_lut_BUFX2
ABUFX2_insert1411 [_8__1_] _8__1_hier0_bF$buf4 d_lut_BUFX2
ABUFX2_insert1410 [_8__1_] _8__1_hier0_bF$buf5 d_lut_BUFX2
ABUFX2_insert1409 [_9__1_] _9__1_hier0_bF$buf0 d_lut_BUFX2
ABUFX2_insert1408 [_9__1_] _9__1_hier0_bF$buf1 d_lut_BUFX2
ABUFX2_insert1407 [_9__1_] _9__1_hier0_bF$buf2 d_lut_BUFX2
ABUFX2_insert1406 [_9__1_] _9__1_hier0_bF$buf3 d_lut_BUFX2
ABUFX2_insert1405 [_9__1_] _9__1_hier0_bF$buf4 d_lut_BUFX2
ABUFX2_insert1404 [_9__1_] _9__1_hier0_bF$buf5 d_lut_BUFX2
ABUFX2_insert1403 [_7003_] _7003__hier0_bF$buf0 d_lut_BUFX2
ABUFX2_insert1402 [_7003_] _7003__hier0_bF$buf1 d_lut_BUFX2
ABUFX2_insert1401 [_7003_] _7003__hier0_bF$buf2 d_lut_BUFX2
ABUFX2_insert1400 [_7003_] _7003__hier0_bF$buf3 d_lut_BUFX2
ABUFX2_insert1399 [_7003_] _7003__hier0_bF$buf4 d_lut_BUFX2
ABUFX2_insert1398 [_7003_] _7003__hier0_bF$buf5 d_lut_BUFX2
ABUFX2_insert1397 [_8__0_] _8__0_hier0_bF$buf0 d_lut_BUFX2
ABUFX2_insert1396 [_8__0_] _8__0_hier0_bF$buf1 d_lut_BUFX2
ABUFX2_insert1395 [_8__0_] _8__0_hier0_bF$buf2 d_lut_BUFX2
ABUFX2_insert1394 [_8__0_] _8__0_hier0_bF$buf3 d_lut_BUFX2
ABUFX2_insert1393 [_8__0_] _8__0_hier0_bF$buf4 d_lut_BUFX2
ABUFX2_insert1392 [_8__0_] _8__0_hier0_bF$buf5 d_lut_BUFX2
ABUFX2_insert1391 [_8__0_] _8__0_hier0_bF$buf6 d_lut_BUFX2
ABUFX2_insert1390 [_8__0_] _8__0_hier0_bF$buf7 d_lut_BUFX2
ACLKBUF1_insert1389 [clk] clk_hier0_bF$buf0 d_lut_CLKBUF1
ACLKBUF1_insert1388 [clk] clk_hier0_bF$buf1 d_lut_CLKBUF1
ACLKBUF1_insert1387 [clk] clk_hier0_bF$buf2 d_lut_CLKBUF1
ACLKBUF1_insert1386 [clk] clk_hier0_bF$buf3 d_lut_CLKBUF1
ACLKBUF1_insert1385 [clk] clk_hier0_bF$buf4 d_lut_CLKBUF1
ACLKBUF1_insert1384 [clk] clk_hier0_bF$buf5 d_lut_CLKBUF1
ACLKBUF1_insert1383 [clk] clk_hier0_bF$buf6 d_lut_CLKBUF1
ACLKBUF1_insert1382 [clk] clk_hier0_bF$buf7 d_lut_CLKBUF1
ACLKBUF1_insert1381 [clk] clk_hier0_bF$buf8 d_lut_CLKBUF1
ACLKBUF1_insert1380 [clk] clk_hier0_bF$buf9 d_lut_CLKBUF1
ACLKBUF1_insert1379 [clk] clk_hier0_bF$buf10 d_lut_CLKBUF1
ABUFX2_insert1378 [_9__0_] _9__0_hier0_bF$buf0 d_lut_BUFX2
ABUFX2_insert1377 [_9__0_] _9__0_hier0_bF$buf1 d_lut_BUFX2
ABUFX2_insert1376 [_9__0_] _9__0_hier0_bF$buf2 d_lut_BUFX2
ABUFX2_insert1375 [_9__0_] _9__0_hier0_bF$buf3 d_lut_BUFX2
ABUFX2_insert1374 [_9__0_] _9__0_hier0_bF$buf4 d_lut_BUFX2
ABUFX2_insert1373 [_9__0_] _9__0_hier0_bF$buf5 d_lut_BUFX2
ABUFX2_insert1372 [_9__0_] _9__0_hier0_bF$buf6 d_lut_BUFX2
ABUFX2_insert1371 [_9__0_] _9__0_hier0_bF$buf7 d_lut_BUFX2
ABUFX2_insert1370 [_4743_] _4743__bF$buf0 d_lut_BUFX2
ABUFX2_insert1369 [_4743_] _4743__bF$buf1 d_lut_BUFX2
ABUFX2_insert1368 [_4743_] _4743__bF$buf2 d_lut_BUFX2
ABUFX2_insert1367 [_4743_] _4743__bF$buf3 d_lut_BUFX2
ABUFX2_insert1366 [_4743_] _4743__bF$buf4 d_lut_BUFX2
ABUFX2_insert1365 [_4743_] _4743__bF$buf5 d_lut_BUFX2
ABUFX2_insert1364 [_4743_] _4743__bF$buf6 d_lut_BUFX2
ABUFX2_insert1363 [_4743_] _4743__bF$buf7 d_lut_BUFX2
ABUFX2_insert1362 [_9__3_] _9__3_bF$buf0 d_lut_BUFX2
ABUFX2_insert1361 [_9__3_] _9__3_bF$buf1 d_lut_BUFX2
ABUFX2_insert1360 [_9__3_] _9__3_bF$buf2 d_lut_BUFX2
ABUFX2_insert1359 [_9__3_] _9__3_bF$buf3 d_lut_BUFX2
ABUFX2_insert1358 [_9__3_] _9__3_bF$buf4 d_lut_BUFX2
ABUFX2_insert1357 [_9__3_] _9__3_bF$buf5 d_lut_BUFX2
ABUFX2_insert1356 [_9__3_] _9__3_bF$buf6 d_lut_BUFX2
ABUFX2_insert1355 [_9__3_] _9__3_bF$buf7 d_lut_BUFX2
ABUFX2_insert1354 [_6448_] _6448__bF$buf0 d_lut_BUFX2
ABUFX2_insert1353 [_6448_] _6448__bF$buf1 d_lut_BUFX2
ABUFX2_insert1352 [_6448_] _6448__bF$buf2 d_lut_BUFX2
ABUFX2_insert1351 [_6448_] _6448__bF$buf3 d_lut_BUFX2
ABUFX2_insert1350 [_6448_] _6448__bF$buf4 d_lut_BUFX2
ABUFX2_insert1349 [_6448_] _6448__bF$buf5 d_lut_BUFX2
ABUFX2_insert1348 [_6448_] _6448__bF$buf6 d_lut_BUFX2
ABUFX2_insert1347 [_5302_] _5302__bF$buf0 d_lut_BUFX2
ABUFX2_insert1346 [_5302_] _5302__bF$buf1 d_lut_BUFX2
ABUFX2_insert1345 [_5302_] _5302__bF$buf2 d_lut_BUFX2
ABUFX2_insert1344 [_5302_] _5302__bF$buf3 d_lut_BUFX2
ABUFX2_insert1343 [_5302_] _5302__bF$buf4 d_lut_BUFX2
ABUFX2_insert1342 [_5302_] _5302__bF$buf5 d_lut_BUFX2
ABUFX2_insert1341 [_6263_] _6263__bF$buf0 d_lut_BUFX2
ABUFX2_insert1340 [_6263_] _6263__bF$buf1 d_lut_BUFX2
ABUFX2_insert1339 [_6263_] _6263__bF$buf2 d_lut_BUFX2
ABUFX2_insert1338 [_6263_] _6263__bF$buf3 d_lut_BUFX2
ABUFX2_insert1337 [_6263_] _6263__bF$buf4 d_lut_BUFX2
ABUFX2_insert1336 [\uut.cpu_state\_4_] \uut.cpu_state_4_bF$buf0\ d_lut_BUFX2
ABUFX2_insert1335 [\uut.cpu_state\_4_] \uut.cpu_state_4_bF$buf1\ d_lut_BUFX2
ABUFX2_insert1334 [\uut.cpu_state\_4_] \uut.cpu_state_4_bF$buf2\ d_lut_BUFX2
ABUFX2_insert1333 [\uut.cpu_state\_4_] \uut.cpu_state_4_bF$buf3\ d_lut_BUFX2
ABUFX2_insert1332 [_6416_] _6416__bF$buf0 d_lut_BUFX2
ABUFX2_insert1331 [_6416_] _6416__bF$buf1 d_lut_BUFX2
ABUFX2_insert1330 [_6416_] _6416__bF$buf2 d_lut_BUFX2
ABUFX2_insert1329 [_6416_] _6416__bF$buf3 d_lut_BUFX2
ABUFX2_insert1328 [_6416_] _6416__bF$buf4 d_lut_BUFX2
ABUFX2_insert1327 [_2471_] _2471__bF$buf0 d_lut_BUFX2
ABUFX2_insert1326 [_2471_] _2471__bF$buf1 d_lut_BUFX2
ABUFX2_insert1325 [_2471_] _2471__bF$buf2 d_lut_BUFX2
ABUFX2_insert1324 [_2471_] _2471__bF$buf3 d_lut_BUFX2
ABUFX2_insert1323 [_2471_] _2471__bF$buf4 d_lut_BUFX2
ABUFX2_insert1322 [_9141_] _9141__bF$buf0 d_lut_BUFX2
ABUFX2_insert1321 [_9141_] _9141__bF$buf1 d_lut_BUFX2
ABUFX2_insert1320 [_9141_] _9141__bF$buf2 d_lut_BUFX2
ABUFX2_insert1319 [_9141_] _9141__bF$buf3 d_lut_BUFX2
ABUFX2_insert1318 [_9141_] _9141__bF$buf4 d_lut_BUFX2
ABUFX2_insert1317 [_6172_] _6172__bF$buf0 d_lut_BUFX2
ABUFX2_insert1316 [_6172_] _6172__bF$buf1 d_lut_BUFX2
ABUFX2_insert1315 [_6172_] _6172__bF$buf2 d_lut_BUFX2
ABUFX2_insert1314 [_6172_] _6172__bF$buf3 d_lut_BUFX2
ABUFX2_insert1313 [_6172_] _6172__bF$buf4 d_lut_BUFX2
ABUFX2_insert1312 [_2759_] _2759__bF$buf0 d_lut_BUFX2
ABUFX2_insert1311 [_2759_] _2759__bF$buf1 d_lut_BUFX2
ABUFX2_insert1310 [_2759_] _2759__bF$buf2 d_lut_BUFX2
ABUFX2_insert1309 [_2759_] _2759__bF$buf3 d_lut_BUFX2
ABUFX2_insert1308 [_2759_] _2759__bF$buf4 d_lut_BUFX2
ABUFX2_insert1307 [_2759_] _2759__bF$buf5 d_lut_BUFX2
ABUFX2_insert1306 [_2759_] _2759__bF$buf6 d_lut_BUFX2
ABUFX2_insert1305 [_2759_] _2759__bF$buf7 d_lut_BUFX2
ABUFX2_insert1304 [_8__1_hier0_bF$buf5] _8__1_bF$buf0 d_lut_BUFX2
ABUFX2_insert1303 [_8__1_hier0_bF$buf4] _8__1_bF$buf1 d_lut_BUFX2
ABUFX2_insert1302 [_8__1_hier0_bF$buf3] _8__1_bF$buf2 d_lut_BUFX2
ABUFX2_insert1301 [_8__1_hier0_bF$buf2] _8__1_bF$buf3 d_lut_BUFX2
ABUFX2_insert1300 [_8__1_hier0_bF$buf1] _8__1_bF$buf4 d_lut_BUFX2
ABUFX2_insert1299 [_8__1_hier0_bF$buf0] _8__1_bF$buf5 d_lut_BUFX2
ABUFX2_insert1298 [_8__1_hier0_bF$buf5] _8__1_bF$buf6 d_lut_BUFX2
ABUFX2_insert1297 [_8__1_hier0_bF$buf4] _8__1_bF$buf7 d_lut_BUFX2
ABUFX2_insert1296 [_8__1_hier0_bF$buf3] _8__1_bF$buf8 d_lut_BUFX2
ABUFX2_insert1295 [_8__1_hier0_bF$buf2] _8__1_bF$buf9 d_lut_BUFX2
ABUFX2_insert1294 [_8__1_hier0_bF$buf1] _8__1_bF$buf10 d_lut_BUFX2
ABUFX2_insert1293 [_8__1_hier0_bF$buf0] _8__1_bF$buf11 d_lut_BUFX2
ABUFX2_insert1292 [_8__1_hier0_bF$buf5] _8__1_bF$buf12 d_lut_BUFX2
ABUFX2_insert1291 [_8__1_hier0_bF$buf4] _8__1_bF$buf13 d_lut_BUFX2
ABUFX2_insert1290 [_8__1_hier0_bF$buf3] _8__1_bF$buf14 d_lut_BUFX2
ABUFX2_insert1289 [_8__1_hier0_bF$buf2] _8__1_bF$buf15 d_lut_BUFX2
ABUFX2_insert1288 [_8__1_hier0_bF$buf1] _8__1_bF$buf16 d_lut_BUFX2
ABUFX2_insert1287 [_8__1_hier0_bF$buf0] _8__1_bF$buf17 d_lut_BUFX2
ABUFX2_insert1286 [_8__1_hier0_bF$buf5] _8__1_bF$buf18 d_lut_BUFX2
ABUFX2_insert1285 [_8__1_hier0_bF$buf4] _8__1_bF$buf19 d_lut_BUFX2
ABUFX2_insert1284 [_8__1_hier0_bF$buf3] _8__1_bF$buf20 d_lut_BUFX2
ABUFX2_insert1283 [_8__1_hier0_bF$buf2] _8__1_bF$buf21 d_lut_BUFX2
ABUFX2_insert1282 [_8__1_hier0_bF$buf1] _8__1_bF$buf22 d_lut_BUFX2
ABUFX2_insert1281 [_8__1_hier0_bF$buf0] _8__1_bF$buf23 d_lut_BUFX2
ABUFX2_insert1280 [_8__1_hier0_bF$buf5] _8__1_bF$buf24 d_lut_BUFX2
ABUFX2_insert1279 [_8__1_hier0_bF$buf4] _8__1_bF$buf25 d_lut_BUFX2
ABUFX2_insert1278 [_8__1_hier0_bF$buf3] _8__1_bF$buf26 d_lut_BUFX2
ABUFX2_insert1277 [_8__1_hier0_bF$buf2] _8__1_bF$buf27 d_lut_BUFX2
ABUFX2_insert1276 [_8__1_hier0_bF$buf1] _8__1_bF$buf28 d_lut_BUFX2
ABUFX2_insert1275 [_8__1_hier0_bF$buf0] _8__1_bF$buf29 d_lut_BUFX2
ABUFX2_insert1274 [_8__1_hier0_bF$buf5] _8__1_bF$buf30 d_lut_BUFX2
ABUFX2_insert1273 [_8__1_hier0_bF$buf4] _8__1_bF$buf31 d_lut_BUFX2
ABUFX2_insert1272 [_8__1_hier0_bF$buf3] _8__1_bF$buf32 d_lut_BUFX2
ABUFX2_insert1271 [_8__1_hier0_bF$buf2] _8__1_bF$buf33 d_lut_BUFX2
ABUFX2_insert1270 [_8__1_hier0_bF$buf1] _8__1_bF$buf34 d_lut_BUFX2
ABUFX2_insert1269 [_8__1_hier0_bF$buf0] _8__1_bF$buf35 d_lut_BUFX2
ABUFX2_insert1268 [_8__1_hier0_bF$buf5] _8__1_bF$buf36 d_lut_BUFX2
ABUFX2_insert1267 [_8__1_hier0_bF$buf4] _8__1_bF$buf37 d_lut_BUFX2
ABUFX2_insert1266 [_8__1_hier0_bF$buf3] _8__1_bF$buf38 d_lut_BUFX2
ABUFX2_insert1265 [_8__1_hier0_bF$buf2] _8__1_bF$buf39 d_lut_BUFX2
ABUFX2_insert1264 [_8__1_hier0_bF$buf1] _8__1_bF$buf40 d_lut_BUFX2
ABUFX2_insert1263 [_8__1_hier0_bF$buf0] _8__1_bF$buf41 d_lut_BUFX2
ABUFX2_insert1262 [_8__1_hier0_bF$buf5] _8__1_bF$buf42 d_lut_BUFX2
ABUFX2_insert1261 [_8__1_hier0_bF$buf4] _8__1_bF$buf43 d_lut_BUFX2
ABUFX2_insert1260 [_8__1_hier0_bF$buf3] _8__1_bF$buf44 d_lut_BUFX2
ABUFX2_insert1259 [_8__1_hier0_bF$buf2] _8__1_bF$buf45 d_lut_BUFX2
ABUFX2_insert1258 [_4908_] _4908__bF$buf0 d_lut_BUFX2
ABUFX2_insert1257 [_4908_] _4908__bF$buf1 d_lut_BUFX2
ABUFX2_insert1256 [_4908_] _4908__bF$buf2 d_lut_BUFX2
ABUFX2_insert1255 [_4908_] _4908__bF$buf3 d_lut_BUFX2
ABUFX2_insert1254 [_4908_] _4908__bF$buf4 d_lut_BUFX2
ABUFX2_insert1253 [_6272_] _6272__bF$buf0 d_lut_BUFX2
ABUFX2_insert1252 [_6272_] _6272__bF$buf1 d_lut_BUFX2
ABUFX2_insert1251 [_6272_] _6272__bF$buf2 d_lut_BUFX2
ABUFX2_insert1250 [_6272_] _6272__bF$buf3 d_lut_BUFX2
ABUFX2_insert1249 [_6272_] _6272__bF$buf4 d_lut_BUFX2
ABUFX2_insert1248 [_8__4_] _8__4_bF$buf0 d_lut_BUFX2
ABUFX2_insert1247 [_8__4_] _8__4_bF$buf1 d_lut_BUFX2
ABUFX2_insert1246 [_8__4_] _8__4_bF$buf2 d_lut_BUFX2
ABUFX2_insert1245 [_8__4_] _8__4_bF$buf3 d_lut_BUFX2
ABUFX2_insert1244 [_8__4_] _8__4_bF$buf4 d_lut_BUFX2
ABUFX2_insert1243 [_8__4_] _8__4_bF$buf5 d_lut_BUFX2
ABUFX2_insert1242 [_9282_] _9282__bF$buf0 d_lut_BUFX2
ABUFX2_insert1241 [_9282_] _9282__bF$buf1 d_lut_BUFX2
ABUFX2_insert1240 [_9282_] _9282__bF$buf2 d_lut_BUFX2
ABUFX2_insert1239 [_9282_] _9282__bF$buf3 d_lut_BUFX2
ABUFX2_insert1238 [_9282_] _9282__bF$buf4 d_lut_BUFX2
ABUFX2_insert1237 [_6598_] _6598__bF$buf0 d_lut_BUFX2
ABUFX2_insert1236 [_6598_] _6598__bF$buf1 d_lut_BUFX2
ABUFX2_insert1235 [_6598_] _6598__bF$buf2 d_lut_BUFX2
ABUFX2_insert1234 [_6598_] _6598__bF$buf3 d_lut_BUFX2
ABUFX2_insert1233 [_6598_] _6598__bF$buf4 d_lut_BUFX2
ABUFX2_insert1232 [_6598_] _6598__bF$buf5 d_lut_BUFX2
ABUFX2_insert1231 [_6598_] _6598__bF$buf6 d_lut_BUFX2
ABUFX2_insert1230 [_6598_] _6598__bF$buf7 d_lut_BUFX2
ABUFX2_insert1229 [_6598_] _6598__bF$buf8 d_lut_BUFX2
ABUFX2_insert1228 [_6598_] _6598__bF$buf9 d_lut_BUFX2
ABUFX2_insert1227 [_6598_] _6598__bF$buf10 d_lut_BUFX2
ABUFX2_insert1226 [_5164_] _5164__bF$buf0 d_lut_BUFX2
ABUFX2_insert1225 [_5164_] _5164__bF$buf1 d_lut_BUFX2
ABUFX2_insert1224 [_5164_] _5164__bF$buf2 d_lut_BUFX2
ABUFX2_insert1223 [_5164_] _5164__bF$buf3 d_lut_BUFX2
ABUFX2_insert1222 [_5164_] _5164__bF$buf4 d_lut_BUFX2
ABUFX2_insert1221 [_6181_] _6181__bF$buf0 d_lut_BUFX2
ABUFX2_insert1220 [_6181_] _6181__bF$buf1 d_lut_BUFX2
ABUFX2_insert1219 [_6181_] _6181__bF$buf2 d_lut_BUFX2
ABUFX2_insert1218 [_6181_] _6181__bF$buf3 d_lut_BUFX2
ABUFX2_insert1217 [_6181_] _6181__bF$buf4 d_lut_BUFX2
ABUFX2_insert1216 [_6983_] _6983__bF$buf0 d_lut_BUFX2
ABUFX2_insert1215 [_6983_] _6983__bF$buf1 d_lut_BUFX2
ABUFX2_insert1214 [_6983_] _6983__bF$buf2 d_lut_BUFX2
ABUFX2_insert1213 [_6983_] _6983__bF$buf3 d_lut_BUFX2
ABUFX2_insert1212 [_6983_] _6983__bF$buf4 d_lut_BUFX2
ABUFX2_insert1211 [_6983_] _6983__bF$buf5 d_lut_BUFX2
ABUFX2_insert1210 [_6983_] _6983__bF$buf6 d_lut_BUFX2
ABUFX2_insert1209 [_2827_] _2827__bF$buf0 d_lut_BUFX2
ABUFX2_insert1208 [_2827_] _2827__bF$buf1 d_lut_BUFX2
ABUFX2_insert1207 [_2827_] _2827__bF$buf2 d_lut_BUFX2
ABUFX2_insert1206 [_2827_] _2827__bF$buf3 d_lut_BUFX2
ABUFX2_insert1205 [_2827_] _2827__bF$buf4 d_lut_BUFX2
ABUFX2_insert1204 [\uut.instr_sub\] \uut.instr_sub_bF$buf0\ d_lut_BUFX2
ABUFX2_insert1203 [\uut.instr_sub\] \uut.instr_sub_bF$buf1\ d_lut_BUFX2
ABUFX2_insert1202 [\uut.instr_sub\] \uut.instr_sub_bF$buf2\ d_lut_BUFX2
ABUFX2_insert1201 [\uut.instr_sub\] \uut.instr_sub_bF$buf3\ d_lut_BUFX2
ABUFX2_insert1200 [_2542_] _2542__bF$buf0 d_lut_BUFX2
ABUFX2_insert1199 [_2542_] _2542__bF$buf1 d_lut_BUFX2
ABUFX2_insert1198 [_2542_] _2542__bF$buf2 d_lut_BUFX2
ABUFX2_insert1197 [_2542_] _2542__bF$buf3 d_lut_BUFX2
ABUFX2_insert1196 [_2542_] _2542__bF$buf4 d_lut_BUFX2
ABUFX2_insert1195 [_3042_] _3042__bF$buf0 d_lut_BUFX2
ABUFX2_insert1194 [_3042_] _3042__bF$buf1 d_lut_BUFX2
ABUFX2_insert1193 [_3042_] _3042__bF$buf2 d_lut_BUFX2
ABUFX2_insert1192 [_3042_] _3042__bF$buf3 d_lut_BUFX2
ABUFX2_insert1191 [_3042_] _3042__bF$buf4 d_lut_BUFX2
ABUFX2_insert1190 [_3330_] _3330__bF$buf0 d_lut_BUFX2
ABUFX2_insert1189 [_3330_] _3330__bF$buf1 d_lut_BUFX2
ABUFX2_insert1188 [_3330_] _3330__bF$buf2 d_lut_BUFX2
ABUFX2_insert1187 [_3330_] _3330__bF$buf3 d_lut_BUFX2
ABUFX2_insert1186 [_3330_] _3330__bF$buf4 d_lut_BUFX2
ABUFX2_insert1185 [_3330_] _3330__bF$buf5 d_lut_BUFX2
ABUFX2_insert1184 [_6281_] _6281__bF$buf0 d_lut_BUFX2
ABUFX2_insert1183 [_6281_] _6281__bF$buf1 d_lut_BUFX2
ABUFX2_insert1182 [_6281_] _6281__bF$buf2 d_lut_BUFX2
ABUFX2_insert1181 [_6281_] _6281__bF$buf3 d_lut_BUFX2
ABUFX2_insert1180 [_6281_] _6281__bF$buf4 d_lut_BUFX2
ABUFX2_insert1179 [_4729_] _4729__bF$buf0 d_lut_BUFX2
ABUFX2_insert1178 [_4729_] _4729__bF$buf1 d_lut_BUFX2
ABUFX2_insert1177 [_4729_] _4729__bF$buf2 d_lut_BUFX2
ABUFX2_insert1176 [_4729_] _4729__bF$buf3 d_lut_BUFX2
ABUFX2_insert1175 [_4864_] _4864__bF$buf0 d_lut_BUFX2
ABUFX2_insert1174 [_4864_] _4864__bF$buf1 d_lut_BUFX2
ABUFX2_insert1173 [_4864_] _4864__bF$buf2 d_lut_BUFX2
ABUFX2_insert1172 [_4864_] _4864__bF$buf3 d_lut_BUFX2
ABUFX2_insert1171 [_4864_] _4864__bF$buf4 d_lut_BUFX2
ABUFX2_insert1170 [_4864_] _4864__bF$buf5 d_lut_BUFX2
ABUFX2_insert1169 [_4864_] _4864__bF$buf6 d_lut_BUFX2
ABUFX2_insert1168 [_6149_] _6149__bF$buf0 d_lut_BUFX2
ABUFX2_insert1167 [_6149_] _6149__bF$buf1 d_lut_BUFX2
ABUFX2_insert1166 [_6149_] _6149__bF$buf2 d_lut_BUFX2
ABUFX2_insert1165 [_6149_] _6149__bF$buf3 d_lut_BUFX2
ABUFX2_insert1164 [_6149_] _6149__bF$buf4 d_lut_BUFX2
ABUFX2_insert1163 [_4923_] _4923__bF$buf0 d_lut_BUFX2
ABUFX2_insert1162 [_4923_] _4923__bF$buf1 d_lut_BUFX2
ABUFX2_insert1161 [_4923_] _4923__bF$buf2 d_lut_BUFX2
ABUFX2_insert1160 [_4923_] _4923__bF$buf3 d_lut_BUFX2
ABUFX2_insert1159 [_4923_] _4923__bF$buf4 d_lut_BUFX2
ABUFX2_insert1158 [_6190_] _6190__bF$buf0 d_lut_BUFX2
ABUFX2_insert1157 [_6190_] _6190__bF$buf1 d_lut_BUFX2
ABUFX2_insert1156 [_6190_] _6190__bF$buf2 d_lut_BUFX2
ABUFX2_insert1155 [_6190_] _6190__bF$buf3 d_lut_BUFX2
ABUFX2_insert1154 [_6190_] _6190__bF$buf4 d_lut_BUFX2
ABUFX2_insert1153 [_6992_] _6992__bF$buf0 d_lut_BUFX2
ABUFX2_insert1152 [_6992_] _6992__bF$buf1 d_lut_BUFX2
ABUFX2_insert1151 [_6992_] _6992__bF$buf2 d_lut_BUFX2
ABUFX2_insert1150 [_6992_] _6992__bF$buf3 d_lut_BUFX2
ABUFX2_insert1149 [_6992_] _6992__bF$buf4 d_lut_BUFX2
ABUFX2_insert1148 [_2683_] _2683__bF$buf0 d_lut_BUFX2
ABUFX2_insert1147 [_2683_] _2683__bF$buf1 d_lut_BUFX2
ABUFX2_insert1146 [_2683_] _2683__bF$buf2 d_lut_BUFX2
ABUFX2_insert1145 [_2683_] _2683__bF$buf3 d_lut_BUFX2
ABUFX2_insert1144 [_2683_] _2683__bF$buf4 d_lut_BUFX2
ABUFX2_insert1143 [_7225_] _7225__bF$buf0 d_lut_BUFX2
ABUFX2_insert1142 [_7225_] _7225__bF$buf1 d_lut_BUFX2
ABUFX2_insert1141 [_7225_] _7225__bF$buf2 d_lut_BUFX2
ABUFX2_insert1140 [_7225_] _7225__bF$buf3 d_lut_BUFX2
ABUFX2_insert1139 [_6440_] _6440__bF$buf0 d_lut_BUFX2
ABUFX2_insert1138 [_6440_] _6440__bF$buf1 d_lut_BUFX2
ABUFX2_insert1137 [_6440_] _6440__bF$buf2 d_lut_BUFX2
ABUFX2_insert1136 [_6440_] _6440__bF$buf3 d_lut_BUFX2
ABUFX2_insert1135 [_6440_] _6440__bF$buf4 d_lut_BUFX2
ABUFX2_insert1134 [_4773_] _4773__bF$buf0 d_lut_BUFX2
ABUFX2_insert1133 [_4773_] _4773__bF$buf1 d_lut_BUFX2
ABUFX2_insert1132 [_4773_] _4773__bF$buf2 d_lut_BUFX2
ABUFX2_insert1131 [_4773_] _4773__bF$buf3 d_lut_BUFX2
ABUFX2_insert1130 [_4773_] _4773__bF$buf4 d_lut_BUFX2
ABUFX2_insert1129 [_6290_] _6290__bF$buf0 d_lut_BUFX2
ABUFX2_insert1128 [_6290_] _6290__bF$buf1 d_lut_BUFX2
ABUFX2_insert1127 [_6290_] _6290__bF$buf2 d_lut_BUFX2
ABUFX2_insert1126 [_6290_] _6290__bF$buf3 d_lut_BUFX2
ABUFX2_insert1125 [_6290_] _6290__bF$buf4 d_lut_BUFX2
ABUFX2_insert1124 [_7002_] _7002__bF$buf0 d_lut_BUFX2
ABUFX2_insert1123 [_7002_] _7002__bF$buf1 d_lut_BUFX2
ABUFX2_insert1122 [_7002_] _7002__bF$buf2 d_lut_BUFX2
ABUFX2_insert1121 [_7002_] _7002__bF$buf3 d_lut_BUFX2
ABUFX2_insert1120 [_7002_] _7002__bF$buf4 d_lut_BUFX2
ABUFX2_insert1119 [_7002_] _7002__bF$buf5 d_lut_BUFX2
ABUFX2_insert1118 [_7002_] _7002__bF$buf6 d_lut_BUFX2
ABUFX2_insert1117 [_7002_] _7002__bF$buf7 d_lut_BUFX2
ABUFX2_insert1116 [_7002_] _7002__bF$buf8 d_lut_BUFX2
ABUFX2_insert1115 [_7002_] _7002__bF$buf9 d_lut_BUFX2
ABUFX2_insert1114 [_7002_] _7002__bF$buf10 d_lut_BUFX2
ABUFX2_insert1113 [_7002_] _7002__bF$buf11 d_lut_BUFX2
ABUFX2_insert1112 [_6387_] _6387__bF$buf0 d_lut_BUFX2
ABUFX2_insert1111 [_6387_] _6387__bF$buf1 d_lut_BUFX2
ABUFX2_insert1110 [_6387_] _6387__bF$buf2 d_lut_BUFX2
ABUFX2_insert1109 [_6387_] _6387__bF$buf3 d_lut_BUFX2
ABUFX2_insert1108 [_6387_] _6387__bF$buf4 d_lut_BUFX2
ABUFX2_insert1107 [\uut.mem_wordsize\_1_] \uut.mem_wordsize_1_bF$buf0\ d_lut_BUFX2
ABUFX2_insert1106 [\uut.mem_wordsize\_1_] \uut.mem_wordsize_1_bF$buf1\ d_lut_BUFX2
ABUFX2_insert1105 [\uut.mem_wordsize\_1_] \uut.mem_wordsize_1_bF$buf2\ d_lut_BUFX2
ABUFX2_insert1104 [\uut.mem_wordsize\_1_] \uut.mem_wordsize_1_bF$buf3\ d_lut_BUFX2
ABUFX2_insert1103 [\uut.mem_wordsize\_1_] \uut.mem_wordsize_1_bF$buf4\ d_lut_BUFX2
ABUFX2_insert1102 [_6998_] _6998__bF$buf0 d_lut_BUFX2
ABUFX2_insert1101 [_6998_] _6998__bF$buf1 d_lut_BUFX2
ABUFX2_insert1100 [_6998_] _6998__bF$buf2 d_lut_BUFX2
ABUFX2_insert1099 [_6998_] _6998__bF$buf3 d_lut_BUFX2
ABUFX2_insert1098 [_6998_] _6998__bF$buf4 d_lut_BUFX2
ABUFX2_insert1097 [_6998_] _6998__bF$buf5 d_lut_BUFX2
ABUFX2_insert1096 [_9__1_hier0_bF$buf5] _9__1_bF$buf0 d_lut_BUFX2
ABUFX2_insert1095 [_9__1_hier0_bF$buf4] _9__1_bF$buf1 d_lut_BUFX2
ABUFX2_insert1094 [_9__1_hier0_bF$buf3] _9__1_bF$buf2 d_lut_BUFX2
ABUFX2_insert1093 [_9__1_hier0_bF$buf2] _9__1_bF$buf3 d_lut_BUFX2
ABUFX2_insert1092 [_9__1_hier0_bF$buf1] _9__1_bF$buf4 d_lut_BUFX2
ABUFX2_insert1091 [_9__1_hier0_bF$buf0] _9__1_bF$buf5 d_lut_BUFX2
ABUFX2_insert1090 [_9__1_hier0_bF$buf5] _9__1_bF$buf6 d_lut_BUFX2
ABUFX2_insert1089 [_9__1_hier0_bF$buf4] _9__1_bF$buf7 d_lut_BUFX2
ABUFX2_insert1088 [_9__1_hier0_bF$buf3] _9__1_bF$buf8 d_lut_BUFX2
ABUFX2_insert1087 [_9__1_hier0_bF$buf2] _9__1_bF$buf9 d_lut_BUFX2
ABUFX2_insert1086 [_9__1_hier0_bF$buf1] _9__1_bF$buf10 d_lut_BUFX2
ABUFX2_insert1085 [_9__1_hier0_bF$buf0] _9__1_bF$buf11 d_lut_BUFX2
ABUFX2_insert1084 [_9__1_hier0_bF$buf5] _9__1_bF$buf12 d_lut_BUFX2
ABUFX2_insert1083 [_9__1_hier0_bF$buf4] _9__1_bF$buf13 d_lut_BUFX2
ABUFX2_insert1082 [_9__1_hier0_bF$buf3] _9__1_bF$buf14 d_lut_BUFX2
ABUFX2_insert1081 [_9__1_hier0_bF$buf2] _9__1_bF$buf15 d_lut_BUFX2
ABUFX2_insert1080 [_9__1_hier0_bF$buf1] _9__1_bF$buf16 d_lut_BUFX2
ABUFX2_insert1079 [_9__1_hier0_bF$buf0] _9__1_bF$buf17 d_lut_BUFX2
ABUFX2_insert1078 [_9__1_hier0_bF$buf5] _9__1_bF$buf18 d_lut_BUFX2
ABUFX2_insert1077 [_9__1_hier0_bF$buf4] _9__1_bF$buf19 d_lut_BUFX2
ABUFX2_insert1076 [_9__1_hier0_bF$buf3] _9__1_bF$buf20 d_lut_BUFX2
ABUFX2_insert1075 [_9__1_hier0_bF$buf2] _9__1_bF$buf21 d_lut_BUFX2
ABUFX2_insert1074 [_9__1_hier0_bF$buf1] _9__1_bF$buf22 d_lut_BUFX2
ABUFX2_insert1073 [_9__1_hier0_bF$buf0] _9__1_bF$buf23 d_lut_BUFX2
ABUFX2_insert1072 [_9__1_hier0_bF$buf5] _9__1_bF$buf24 d_lut_BUFX2
ABUFX2_insert1071 [_9__1_hier0_bF$buf4] _9__1_bF$buf25 d_lut_BUFX2
ABUFX2_insert1070 [_9__1_hier0_bF$buf3] _9__1_bF$buf26 d_lut_BUFX2
ABUFX2_insert1069 [_9__1_hier0_bF$buf2] _9__1_bF$buf27 d_lut_BUFX2
ABUFX2_insert1068 [_9__1_hier0_bF$buf1] _9__1_bF$buf28 d_lut_BUFX2
ABUFX2_insert1067 [_9__1_hier0_bF$buf0] _9__1_bF$buf29 d_lut_BUFX2
ABUFX2_insert1066 [_9__1_hier0_bF$buf5] _9__1_bF$buf30 d_lut_BUFX2
ABUFX2_insert1065 [_9__1_hier0_bF$buf4] _9__1_bF$buf31 d_lut_BUFX2
ABUFX2_insert1064 [_9__1_hier0_bF$buf3] _9__1_bF$buf32 d_lut_BUFX2
ABUFX2_insert1063 [_9__1_hier0_bF$buf2] _9__1_bF$buf33 d_lut_BUFX2
ABUFX2_insert1062 [_9__1_hier0_bF$buf1] _9__1_bF$buf34 d_lut_BUFX2
ABUFX2_insert1061 [_9__1_hier0_bF$buf0] _9__1_bF$buf35 d_lut_BUFX2
ABUFX2_insert1060 [_9__1_hier0_bF$buf5] _9__1_bF$buf36 d_lut_BUFX2
ABUFX2_insert1059 [_9__1_hier0_bF$buf4] _9__1_bF$buf37 d_lut_BUFX2
ABUFX2_insert1058 [_9__1_hier0_bF$buf3] _9__1_bF$buf38 d_lut_BUFX2
ABUFX2_insert1057 [_9__1_hier0_bF$buf2] _9__1_bF$buf39 d_lut_BUFX2
ABUFX2_insert1056 [_9__1_hier0_bF$buf1] _9__1_bF$buf40 d_lut_BUFX2
ABUFX2_insert1055 [_9__1_hier0_bF$buf0] _9__1_bF$buf41 d_lut_BUFX2
ABUFX2_insert1054 [_9__1_hier0_bF$buf5] _9__1_bF$buf42 d_lut_BUFX2
ABUFX2_insert1053 [_9__1_hier0_bF$buf4] _9__1_bF$buf43 d_lut_BUFX2
ABUFX2_insert1052 [_6637_] _6637__bF$buf0 d_lut_BUFX2
ABUFX2_insert1051 [_6637_] _6637__bF$buf1 d_lut_BUFX2
ABUFX2_insert1050 [_6637_] _6637__bF$buf2 d_lut_BUFX2
ABUFX2_insert1049 [_6637_] _6637__bF$buf3 d_lut_BUFX2
ABUFX2_insert1048 [_6637_] _6637__bF$buf4 d_lut_BUFX2
ABUFX2_insert1047 [_6637_] _6637__bF$buf5 d_lut_BUFX2
ABUFX2_insert1046 [_6637_] _6637__bF$buf6 d_lut_BUFX2
ABUFX2_insert1045 [_7005_] _7005__bF$buf0 d_lut_BUFX2
ABUFX2_insert1044 [_7005_] _7005__bF$buf1 d_lut_BUFX2
ABUFX2_insert1043 [_7005_] _7005__bF$buf2 d_lut_BUFX2
ABUFX2_insert1042 [_7005_] _7005__bF$buf3 d_lut_BUFX2
ABUFX2_insert1041 [_7005_] _7005__bF$buf4 d_lut_BUFX2
ABUFX2_insert1040 [_7005_] _7005__bF$buf5 d_lut_BUFX2
ABUFX2_insert1039 [_7005_] _7005__bF$buf6 d_lut_BUFX2
ABUFX2_insert1038 [_7005_] _7005__bF$buf7 d_lut_BUFX2
ABUFX2_insert1037 [_7005_] _7005__bF$buf8 d_lut_BUFX2
ABUFX2_insert1036 [_7005_] _7005__bF$buf9 d_lut_BUFX2
ABUFX2_insert1035 [_7005_] _7005__bF$buf10 d_lut_BUFX2
ABUFX2_insert1034 [_7005_] _7005__bF$buf11 d_lut_BUFX2
ABUFX2_insert1033 [_7005_] _7005__bF$buf12 d_lut_BUFX2
ABUFX2_insert1032 [_7005_] _7005__bF$buf13 d_lut_BUFX2
ABUFX2_insert1031 [_4074_] _4074__bF$buf0 d_lut_BUFX2
ABUFX2_insert1030 [_4074_] _4074__bF$buf1 d_lut_BUFX2
ABUFX2_insert1029 [_4074_] _4074__bF$buf2 d_lut_BUFX2
ABUFX2_insert1028 [_4074_] _4074__bF$buf3 d_lut_BUFX2
ABUFX2_insert1027 [_4074_] _4074__bF$buf4 d_lut_BUFX2
ABUFX2_insert1026 [_6199_] _6199__bF$buf0 d_lut_BUFX2
ABUFX2_insert1025 [_6199_] _6199__bF$buf1 d_lut_BUFX2
ABUFX2_insert1024 [_6199_] _6199__bF$buf2 d_lut_BUFX2
ABUFX2_insert1023 [_6199_] _6199__bF$buf3 d_lut_BUFX2
ABUFX2_insert1022 [_6199_] _6199__bF$buf4 d_lut_BUFX2
ABUFX2_insert1021 [_6602_] _6602__bF$buf0 d_lut_BUFX2
ABUFX2_insert1020 [_6602_] _6602__bF$buf1 d_lut_BUFX2
ABUFX2_insert1019 [_6602_] _6602__bF$buf2 d_lut_BUFX2
ABUFX2_insert1018 [_6602_] _6602__bF$buf3 d_lut_BUFX2
ABUFX2_insert1017 [_6602_] _6602__bF$buf4 d_lut_BUFX2
ABUFX2_insert1016 [_5567_] _5567__bF$buf0 d_lut_BUFX2
ABUFX2_insert1015 [_5567_] _5567__bF$buf1 d_lut_BUFX2
ABUFX2_insert1014 [_5567_] _5567__bF$buf2 d_lut_BUFX2
ABUFX2_insert1013 [_5567_] _5567__bF$buf3 d_lut_BUFX2
ABUFX2_insert1012 [_5567_] _5567__bF$buf4 d_lut_BUFX2
ABUFX2_insert1011 [_5567_] _5567__bF$buf5 d_lut_BUFX2
ABUFX2_insert1010 [_5567_] _5567__bF$buf6 d_lut_BUFX2
ABUFX2_insert1009 [_5567_] _5567__bF$buf7 d_lut_BUFX2
ABUFX2_insert1008 [_9__4_] _9__4_bF$buf0 d_lut_BUFX2
ABUFX2_insert1007 [_9__4_] _9__4_bF$buf1 d_lut_BUFX2
ABUFX2_insert1006 [_9__4_] _9__4_bF$buf2 d_lut_BUFX2
ABUFX2_insert1005 [_9__4_] _9__4_bF$buf3 d_lut_BUFX2
ABUFX2_insert1004 [_9__4_] _9__4_bF$buf4 d_lut_BUFX2
ABUFX2_insert1003 [_9__4_] _9__4_bF$buf5 d_lut_BUFX2
ABUFX2_insert1002 [\uut.instr_xor\] \uut.instr_xor_bF$buf0\ d_lut_BUFX2
ABUFX2_insert1001 [\uut.instr_xor\] \uut.instr_xor_bF$buf1\ d_lut_BUFX2
ABUFX2_insert1000 [\uut.instr_xor\] \uut.instr_xor_bF$buf2\ d_lut_BUFX2
ABUFX2_insert999 [\uut.instr_xor\] \uut.instr_xor_bF$buf3\ d_lut_BUFX2
ABUFX2_insert998 [\uut.instr_rdinstr\] \uut.instr_rdinstr_bF$buf0\ d_lut_BUFX2
ABUFX2_insert997 [\uut.instr_rdinstr\] \uut.instr_rdinstr_bF$buf1\ d_lut_BUFX2
ABUFX2_insert996 [\uut.instr_rdinstr\] \uut.instr_rdinstr_bF$buf2\ d_lut_BUFX2
ABUFX2_insert995 [\uut.instr_rdinstr\] \uut.instr_rdinstr_bF$buf3\ d_lut_BUFX2
ABUFX2_insert994 [\uut.instr_rdinstr\] \uut.instr_rdinstr_bF$buf4\ d_lut_BUFX2
ABUFX2_insert993 [_6490_] _6490__bF$buf0 d_lut_BUFX2
ABUFX2_insert992 [_6490_] _6490__bF$buf1 d_lut_BUFX2
ABUFX2_insert991 [_6490_] _6490__bF$buf2 d_lut_BUFX2
ABUFX2_insert990 [_6490_] _6490__bF$buf3 d_lut_BUFX2
ABUFX2_insert989 [_6490_] _6490__bF$buf4 d_lut_BUFX2
ABUFX2_insert988 [_6317_] _6317__bF$buf0 d_lut_BUFX2
ABUFX2_insert987 [_6317_] _6317__bF$buf1 d_lut_BUFX2
ABUFX2_insert986 [_6317_] _6317__bF$buf2 d_lut_BUFX2
ABUFX2_insert985 [_6317_] _6317__bF$buf3 d_lut_BUFX2
ABUFX2_insert984 [_6317_] _6317__bF$buf4 d_lut_BUFX2
ABUFX2_insert983 [resetn] resetn_bF$buf0 d_lut_BUFX2
ABUFX2_insert982 [resetn] resetn_bF$buf1 d_lut_BUFX2
ABUFX2_insert981 [resetn] resetn_bF$buf2 d_lut_BUFX2
ABUFX2_insert980 [resetn] resetn_bF$buf3 d_lut_BUFX2
ABUFX2_insert979 [resetn] resetn_bF$buf4 d_lut_BUFX2
ABUFX2_insert978 [resetn] resetn_bF$buf5 d_lut_BUFX2
ABUFX2_insert977 [resetn] resetn_bF$buf6 d_lut_BUFX2
ABUFX2_insert976 [resetn] resetn_bF$buf7 d_lut_BUFX2
ABUFX2_insert975 [resetn] resetn_bF$buf8 d_lut_BUFX2
ABUFX2_insert974 [resetn] resetn_bF$buf9 d_lut_BUFX2
ABUFX2_insert973 [resetn] resetn_bF$buf10 d_lut_BUFX2
ABUFX2_insert972 [_4785_] _4785__bF$buf0 d_lut_BUFX2
ABUFX2_insert971 [_4785_] _4785__bF$buf1 d_lut_BUFX2
ABUFX2_insert970 [_4785_] _4785__bF$buf2 d_lut_BUFX2
ABUFX2_insert969 [_4785_] _4785__bF$buf3 d_lut_BUFX2
ABUFX2_insert968 [_4785_] _4785__bF$buf4 d_lut_BUFX2
ABUFX2_insert967 [_6299_] _6299__bF$buf0 d_lut_BUFX2
ABUFX2_insert966 [_6299_] _6299__bF$buf1 d_lut_BUFX2
ABUFX2_insert965 [_6299_] _6299__bF$buf2 d_lut_BUFX2
ABUFX2_insert964 [_6299_] _6299__bF$buf3 d_lut_BUFX2
ABUFX2_insert963 [_6299_] _6299__bF$buf4 d_lut_BUFX2
ABUFX2_insert962 [_9271_] _9271__bF$buf0 d_lut_BUFX2
ABUFX2_insert961 [_9271_] _9271__bF$buf1 d_lut_BUFX2
ABUFX2_insert960 [_9271_] _9271__bF$buf2 d_lut_BUFX2
ABUFX2_insert959 [_9271_] _9271__bF$buf3 d_lut_BUFX2
ABUFX2_insert958 [_9271_] _9271__bF$buf4 d_lut_BUFX2
ABUFX2_insert957 [_5347_] _5347__bF$buf0 d_lut_BUFX2
ABUFX2_insert956 [_5347_] _5347__bF$buf1 d_lut_BUFX2
ABUFX2_insert955 [_5347_] _5347__bF$buf2 d_lut_BUFX2
ABUFX2_insert954 [_5347_] _5347__bF$buf3 d_lut_BUFX2
ABUFX2_insert953 [_5347_] _5347__bF$buf4 d_lut_BUFX2
ABUFX2_insert952 [_5347_] _5347__bF$buf5 d_lut_BUFX2
ABUFX2_insert951 [_5444_] _5444__bF$buf0 d_lut_BUFX2
ABUFX2_insert950 [_5444_] _5444__bF$buf1 d_lut_BUFX2
ABUFX2_insert949 [_5444_] _5444__bF$buf2 d_lut_BUFX2
ABUFX2_insert948 [_5444_] _5444__bF$buf3 d_lut_BUFX2
ABUFX2_insert947 [_5444_] _5444__bF$buf4 d_lut_BUFX2
ABUFX2_insert946 [_5444_] _5444__bF$buf5 d_lut_BUFX2
ABUFX2_insert945 [_5444_] _5444__bF$buf6 d_lut_BUFX2
ABUFX2_insert944 [_5444_] _5444__bF$buf7 d_lut_BUFX2
ABUFX2_insert943 [_5444_] _5444__bF$buf8 d_lut_BUFX2
ABUFX2_insert942 [_5444_] _5444__bF$buf9 d_lut_BUFX2
ABUFX2_insert941 [_5444_] _5444__bF$buf10 d_lut_BUFX2
ABUFX2_insert940 [_5444_] _5444__bF$buf11 d_lut_BUFX2
ABUFX2_insert939 [_5444_] _5444__bF$buf12 d_lut_BUFX2
ABUFX2_insert938 [_5444_] _5444__bF$buf13 d_lut_BUFX2
ABUFX2_insert937 [_2895_] _2895__bF$buf0 d_lut_BUFX2
ABUFX2_insert936 [_2895_] _2895__bF$buf1 d_lut_BUFX2
ABUFX2_insert935 [_2895_] _2895__bF$buf2 d_lut_BUFX2
ABUFX2_insert934 [_2895_] _2895__bF$buf3 d_lut_BUFX2
ABUFX2_insert933 [_2895_] _2895__bF$buf4 d_lut_BUFX2
ABUFX2_insert932 [_2437_] _2437__bF$buf0 d_lut_BUFX2