* NGSPICE file created from pong_pt1.ext - technology: scmos

.subckt INVX1 A Y vdd gnd
M1000 Y A gnd gnd nfet w=3u l=0.6u
+  ad=6.3p pd=10.2u as=6.3p ps=10.2u
M1001 Y A vdd vdd pfet w=6u l=0.6u
+  ad=12.6p pd=16.2u as=12.6p ps=16.2u
.ends

.subckt OAI21X1 A B C Y vdd gnd
M1000 Y C a_7_14# gnd nfet w=6u l=0.6u
+  ad=12.6p pd=16.2u as=7.2p ps=8.4u
M1001 a_30_146# A vdd vdd pfet w=12u l=0.6u
+  ad=3.6p pd=12.6u as=25.2p ps=28.2u
M1002 vdd C Y vdd pfet w=6u l=0.6u
+  ad=12.6p pd=16.2u as=14.4p ps=14.7u
M1003 gnd A a_7_14# gnd nfet w=6u l=0.6u
+  ad=7.2p pd=8.4u as=12.6p ps=16.2u
M1004 Y B a_30_146# vdd pfet w=12u l=0.6u
+  ad=14.4p pd=14.7u as=3.6p ps=12.6u
M1005 a_7_14# B gnd gnd nfet w=6u l=0.6u
+  ad=7.2p pd=8.4u as=7.2p ps=8.4u
.ends

.subckt NAND2X1 A B Y vdd gnd
M1000 a_27_14# A gnd gnd nfet w=6u l=0.6u
+  ad=2.7p pd=6.9u as=12.6p ps=16.2u
M1001 Y B a_27_14# gnd nfet w=6u l=0.6u
+  ad=12.6p pd=16.2u as=2.7p ps=6.9u
M1002 vdd B Y vdd pfet w=6u l=0.6u
+  ad=12.6p pd=16.2u as=7.2p ps=8.4u
M1003 Y A vdd vdd pfet w=6u l=0.6u
+  ad=7.2p pd=8.4u as=12.6p ps=16.2u
.ends

.subckt AOI21X1 A B C Y vdd gnd
M1000 vdd A a_7_146# vdd pfet w=12u l=0.6u
+  ad=14.4p pd=14.4u as=25.2p ps=28.2u
M1001 Y C a_7_146# vdd pfet w=12u l=0.6u
+  ad=25.2p pd=28.2u as=14.4p ps=14.4u
M1002 a_28_14# A gnd gnd nfet w=6u l=0.6u
+  ad=1.8p pd=6.6u as=12.6p ps=16.2u
M1003 Y B a_28_14# gnd nfet w=6u l=0.6u
+  ad=7.2p pd=8.7u as=1.8p ps=6.6u
M1004 a_7_146# B vdd vdd pfet w=12u l=0.6u
+  ad=14.4p pd=14.4u as=14.4p ps=14.4u
M1005 gnd C Y gnd nfet w=3u l=0.6u
+  ad=6.3p pd=10.2u as=7.2p ps=8.7u
.ends

.subckt NOR2X1 A B Y vdd gnd
M1000 a_25_146# A vdd vdd pfet w=12u l=0.6u
+  ad=3.6p pd=12.6u as=25.2p ps=28.2u
M1001 Y A gnd gnd nfet w=3u l=0.6u
+  ad=3.6p pd=5.4u as=6.3p ps=10.2u
M1002 Y B a_25_146# vdd pfet w=12u l=0.6u
+  ad=25.2p pd=28.2u as=3.6p ps=12.6u
M1003 gnd B Y gnd nfet w=3u l=0.6u
+  ad=6.3p pd=10.2u as=3.6p ps=5.4u
.ends

.subckt DFFSR R S D CLK Q vdd gnd
M1000 a_146_14# a_122_10# a_60_10# vdd pfet w=3u l=0.6u
+  ad=6.3p pd=8.4u as=3.6p ps=5.4u
M1001 a_64_14# a_60_10# gnd gnd nfet w=6u l=0.6u
+  ad=3.6p pd=7.2u as=9p ps=9u
M1002 vdd S a_301_14# vdd pfet w=6u l=0.6u
+  ad=12.6p pd=16.2u as=7.2p ps=8.4u
M1003 a_146_14# a_115_95# a_60_10# gnd nfet w=3u l=0.6u
+  ad=3.6p pd=5.4u as=3.6p ps=5.4u
M1004 a_36_10# a_60_10# vdd vdd pfet w=6u l=0.6u
+  ad=7.2p pd=8.4u as=7.2p ps=8.4u
M1005 a_391_14# a_334_14# gnd gnd nfet w=6u l=0.6u
+  ad=3.6p pd=7.2u as=9.45p ps=9.15u
M1006 a_8_14# R vdd vdd pfet w=6u l=0.6u
+  ad=7.2p pd=8.4u as=12.6p ps=16.2u
M1007 a_36_10# S a_64_14# gnd nfet w=6u l=0.6u
+  ad=14.4p pd=16.8u as=3.6p ps=7.2u
M1008 gnd a_334_14# Q gnd nfet w=3u l=0.6u
+  ad=6.3p pd=10.2u as=6.3p ps=10.2u
M1009 a_281_14# a_122_10# a_36_10# gnd nfet w=3u l=0.6u
+  ad=3.6p pd=5.4u as=6.3p ps=10.2u
M1010 a_28_14# R a_8_14# gnd nfet w=6u l=0.6u
+  ad=3.6p pd=7.2u as=14.4p ps=16.8u
M1011 a_301_14# S a_391_14# gnd nfet w=6u l=0.6u
+  ad=14.4p pd=16.8u as=3.6p ps=7.2u
M1012 gnd a_36_10# a_28_14# gnd nfet w=6u l=0.6u
+  ad=9p pd=9u as=3.6p ps=7.2u
M1013 gnd a_115_95# a_122_10# gnd nfet w=3u l=0.6u
+  ad=3.6p pd=5.4u as=6.3p ps=10.2u
M1014 a_301_14# a_334_14# vdd vdd pfet w=6u l=0.6u
+  ad=7.2p pd=8.4u as=7.2p ps=8.4u
M1015 vdd D a_146_14# vdd pfet w=6u l=0.6u
+  ad=12.6p pd=16.2u as=6.3p ps=8.4u
M1016 a_334_14# a_281_14# vdd vdd pfet w=6u l=0.6u
+  ad=7.2p pd=8.4u as=12.6p ps=16.2u
M1017 vdd a_115_95# a_122_10# vdd pfet w=6u l=0.6u
+  ad=7.2p pd=8.4u as=12.6p ps=16.2u
M1018 a_301_14# a_122_10# a_281_14# vdd pfet w=3u l=0.6u
+  ad=6.3p pd=10.2u as=3.6p ps=5.4u
M1019 gnd D a_146_14# gnd nfet w=3u l=0.6u
+  ad=6.3p pd=10.2u as=3.6p ps=5.4u
M1020 a_60_10# a_115_95# a_8_14# vdd pfet w=3u l=0.6u
+  ad=3.6p pd=5.4u as=6.3p ps=10.2u
M1021 a_301_14# a_115_95# a_281_14# gnd nfet w=3u l=0.6u
+  ad=6.3p pd=10.2u as=3.6p ps=5.4u
M1022 vdd S a_36_10# vdd pfet w=6u l=0.6u
+  ad=12.6p pd=16.2u as=7.2p ps=8.4u
M1023 vdd a_36_10# a_8_14# vdd pfet w=6u l=0.6u
+  ad=7.2p pd=8.4u as=7.2p ps=8.4u
M1024 a_115_95# CLK gnd gnd nfet w=3u l=0.6u
+  ad=6.3p pd=10.2u as=3.6p ps=5.4u
M1025 a_60_10# a_122_10# a_8_14# gnd nfet w=3u l=0.6u
+  ad=3.6p pd=5.4u as=6.3p ps=10.2u
M1026 a_354_14# a_281_14# a_334_14# gnd nfet w=6u l=0.6u
+  ad=3.6p pd=7.2u as=14.4p ps=16.8u
M1027 vdd R a_334_14# vdd pfet w=6u l=0.6u
+  ad=7.2p pd=8.4u as=7.2p ps=8.4u
M1028 a_115_95# CLK vdd vdd pfet w=6u l=0.6u
+  ad=12.6p pd=16.2u as=7.2p ps=8.4u
M1029 a_281_14# a_115_95# a_36_10# vdd pfet w=3u l=0.6u
+  ad=3.6p pd=5.4u as=6.3p ps=10.2u
M1030 gnd R a_354_14# gnd nfet w=6u l=0.6u
+  ad=9.45p pd=9.15u as=3.6p ps=7.2u
M1031 vdd a_334_14# Q vdd pfet w=6u l=0.6u
+  ad=12.6p pd=16.2u as=12.6p ps=16.2u
.ends

.subckt BUFX2 A Y vdd gnd
M1000 Y a_7_14# vdd vdd pfet w=12u l=0.6u
+  ad=25.2p pd=28.2u as=14.4p ps=14.7u
M1001 gnd A a_7_14# gnd nfet w=3u l=0.6u
+  ad=7.2p pd=8.7u as=6.3p ps=10.2u
M1002 Y a_7_14# gnd gnd nfet w=6u l=0.6u
+  ad=12.6p pd=16.2u as=7.2p ps=8.7u
M1003 vdd A a_7_14# vdd pfet w=6u l=0.6u
+  ad=14.4p pd=14.7u as=12.6p ps=16.2u
.ends

.subckt NAND3X1 A B C Y vdd gnd
M1000 Y C a_34_14# gnd nfet w=9u l=0.6u
+  ad=18.9p pd=22.2u as=2.7p ps=9.6u
M1001 a_26_14# A gnd gnd nfet w=9u l=0.6u
+  ad=2.7p pd=9.6u as=18.9p ps=22.2u
M1002 vdd B Y vdd pfet w=6u l=0.6u
+  ad=7.2p pd=8.4u as=7.2p ps=8.4u
M1003 a_34_14# B a_26_14# gnd nfet w=9u l=0.6u
+  ad=2.7p pd=9.6u as=2.7p ps=9.6u
M1004 Y C vdd vdd pfet w=6u l=0.6u
+  ad=12.6p pd=16.2u as=7.2p ps=8.4u
M1005 Y A vdd vdd pfet w=6u l=0.6u
+  ad=7.2p pd=8.4u as=12.6p ps=16.2u
.ends

.subckt NOR3X1 A B C Y vdd gnd
M1000 gnd B Y gnd nfet w=3u l=0.6u
+  ad=3.6p pd=5.4u as=3.6p ps=5.4u
M1001 a_7_166# A vdd vdd pfet w=9u l=0.6u
+  ad=10.8p pd=11.4u as=10.8p ps=11.4u
M1002 a_7_166# B a_65_166# vdd pfet w=9u l=0.6u
+  ad=18.9p pd=22.2u as=10.8p ps=11.4u
M1003 a_65_166# C Y vdd pfet w=9u l=0.6u
+  ad=18.9p pd=22.2u as=10.8p ps=11.4u
M1004 Y C gnd gnd nfet w=3u l=0.6u
+  ad=6.3p pd=10.2u as=3.6p ps=5.4u
M1005 a_65_166# B a_7_166# vdd pfet w=9u l=0.6u
+  ad=10.8p pd=11.4u as=10.8p ps=11.4u
M1006 vdd A a_7_166# vdd pfet w=9u l=0.6u
+  ad=10.8p pd=11.4u as=18.9p ps=22.2u
M1007 Y C a_65_166# vdd pfet w=9u l=0.6u
+  ad=10.8p pd=11.4u as=18.9p ps=22.2u
M1008 Y A gnd gnd nfet w=3u l=0.6u
+  ad=3.6p pd=5.4u as=7.2p ps=10.8u
.ends

.subckt AND2X2 A B Y vdd gnd
M1000 a_25_14# A a_7_14# gnd nfet w=6u l=0.6u
+  ad=2.7p pd=6.9u as=12.6p ps=16.2u
M1001 gnd B a_25_14# gnd nfet w=6u l=0.6u
+  ad=7.2p pd=8.4u as=2.7p ps=6.9u
M1002 vdd B a_7_14# vdd pfet w=6u l=0.6u
+  ad=14.4p pd=14.7u as=8.1p ps=8.7u
M1003 Y a_7_14# gnd gnd nfet w=6u l=0.6u
+  ad=12.6p pd=16.2u as=7.2p ps=8.4u
M1004 Y a_7_14# vdd vdd pfet w=12u l=0.6u
+  ad=25.2p pd=28.2u as=14.4p ps=14.7u
M1005 a_7_14# A vdd vdd pfet w=6u l=0.6u
+  ad=8.1p pd=8.7u as=12.6p ps=16.2u
.ends

.subckt INVX2 A Y vdd gnd
M1000 Y A vdd vdd pfet w=12u l=0.6u
+  ad=25.2p pd=28.2u as=25.2p ps=28.2u
M1001 Y A gnd gnd nfet w=6u l=0.6u
+  ad=12.6p pd=16.2u as=12.6p ps=16.2u
.ends

.subckt OR2X2 A B Y vdd gnd
M1000 Y a_7_146# gnd gnd nfet w=6u l=0.6u
+  ad=12.6p pd=16.2u as=6.3p ps=8.4u
M1001 a_25_146# A a_7_146# vdd pfet w=12u l=0.6u
+  ad=5.4p pd=12.9u as=25.2p ps=28.2u
M1002 a_7_146# A gnd gnd nfet w=3u l=0.6u
+  ad=3.6p pd=5.4u as=6.3p ps=10.2u
M1003 Y a_7_146# vdd vdd pfet w=12u l=0.6u
+  ad=25.2p pd=28.2u as=14.4p ps=14.4u
M1004 gnd B a_7_146# gnd nfet w=3u l=0.6u
+  ad=6.3p pd=8.4u as=3.6p ps=5.4u
M1005 vdd B a_25_146# vdd pfet w=12u l=0.6u
+  ad=14.4p pd=14.4u as=5.4p ps=12.9u
.ends

.subckt AOI22X1 A B C D Y vdd gnd
M1000 gnd C a_56_14# gnd nfet w=6u l=0.6u
+  ad=12.6p pd=16.2u as=1.8p ps=6.6u
M1001 vdd A a_7_146# vdd pfet w=12u l=0.6u
+  ad=14.4p pd=14.4u as=25.2p ps=28.2u
M1002 Y D a_7_146# vdd pfet w=12u l=0.6u
+  ad=14.4p pd=14.4u as=14.4p ps=14.4u
M1003 a_28_14# A gnd gnd nfet w=6u l=0.6u
+  ad=1.8p pd=6.6u as=12.6p ps=16.2u
M1004 Y B a_28_14# gnd nfet w=6u l=0.6u
+  ad=7.2p pd=8.4u as=1.8p ps=6.6u
M1005 a_7_146# C Y vdd pfet w=12u l=0.6u
+  ad=25.2p pd=28.2u as=14.4p ps=14.4u
M1006 a_7_146# B vdd vdd pfet w=12u l=0.6u
+  ad=14.4p pd=14.4u as=14.4p ps=14.4u
M1007 a_56_14# D Y gnd nfet w=6u l=0.6u
+  ad=1.8p pd=6.6u as=7.2p ps=8.4u
.ends

.subckt CLKBUF1 A Y vdd gnd
M1000 Y a_105_14# vdd vdd pfet w=12u l=0.6u
+  ad=14.4p pd=14.4u as=14.4p ps=14.4u
M1001 a_65_14# a_25_14# gnd gnd nfet w=6u l=0.6u
+  ad=7.2p pd=8.4u as=7.2p ps=8.4u
M1002 a_105_14# a_65_14# vdd vdd pfet w=12u l=0.6u
+  ad=14.4p pd=14.4u as=14.4p ps=14.4u
M1003 Y a_105_14# gnd gnd nfet w=6u l=0.6u
+  ad=7.2p pd=8.4u as=7.2p ps=8.4u
M1004 a_25_14# A vdd vdd pfet w=12u l=0.6u
+  ad=14.4p pd=14.4u as=25.2p ps=28.2u
M1005 a_65_14# a_25_14# vdd vdd pfet w=12u l=0.6u
+  ad=14.4p pd=14.4u as=14.4p ps=14.4u
M1006 a_25_14# A gnd gnd nfet w=6u l=0.6u
+  ad=7.2p pd=8.4u as=12.6p ps=16.2u
M1007 gnd a_25_14# a_65_14# gnd nfet w=6u l=0.6u
+  ad=7.2p pd=8.4u as=7.2p ps=8.4u
M1008 a_105_14# a_65_14# gnd gnd nfet w=6u l=0.6u
+  ad=7.2p pd=8.4u as=7.2p ps=8.4u
M1009 gnd a_105_14# Y gnd nfet w=6u l=0.6u
+  ad=12.6p pd=16.2u as=7.2p ps=8.4u
M1010 vdd a_65_14# a_105_14# vdd pfet w=12u l=0.6u
+  ad=14.4p pd=14.4u as=14.4p ps=14.4u
M1011 vdd a_105_14# Y vdd pfet w=12u l=0.6u
+  ad=25.2p pd=28.2u as=14.4p ps=14.4u
M1012 vdd a_25_14# a_65_14# vdd pfet w=12u l=0.6u
+  ad=14.4p pd=14.4u as=14.4p ps=14.4u
M1013 gnd A a_25_14# gnd nfet w=6u l=0.6u
+  ad=7.2p pd=8.4u as=7.2p ps=8.4u
M1014 vdd A a_25_14# vdd pfet w=12u l=0.6u
+  ad=14.4p pd=14.4u as=14.4p ps=14.4u
M1015 gnd a_65_14# a_105_14# gnd nfet w=6u l=0.6u
+  ad=7.2p pd=8.4u as=7.2p ps=8.4u
.ends

.subckt OAI22X1 A B C D Y vdd gnd
M1000 Y D a_7_14# gnd nfet w=6u l=0.6u
+  ad=7.2p pd=8.4u as=7.2p ps=8.4u
M1001 a_25_146# A vdd vdd pfet w=12u l=0.6u
+  ad=5.4p pd=12.9u as=25.2p ps=28.2u
M1002 a_65_146# D Y vdd pfet w=12u l=0.6u
+  ad=5.4p pd=12.9u as=23.4p ps=15.9u
M1003 gnd A a_7_14# gnd nfet w=6u l=0.6u
+  ad=7.2p pd=8.4u as=12.6p ps=16.2u
M1004 a_7_14# C Y gnd nfet w=6u l=0.6u
+  ad=12.6p pd=16.2u as=7.2p ps=8.4u
M1005 a_7_14# B gnd gnd nfet w=6u l=0.6u
+  ad=7.2p pd=8.4u as=7.2p ps=8.4u
M1006 Y B a_25_146# vdd pfet w=12u l=0.6u
+  ad=23.4p pd=15.9u as=5.4p ps=12.9u
M1007 vdd C a_65_146# vdd pfet w=12u l=0.6u
+  ad=25.2p pd=28.2u as=5.4p ps=12.9u
.ends

.subckt INVX8 A Y vdd gnd
M1000 Y A gnd gnd nfet w=6u l=0.6u
+  ad=7.2p pd=8.4u as=7.2p ps=8.4u
M1001 Y A vdd vdd pfet w=12u l=0.6u
+  ad=14.4p pd=14.4u as=25.2p ps=28.2u
M1002 Y A vdd vdd pfet w=12u l=0.6u
+  ad=14.4p pd=14.4u as=14.4p ps=14.4u
M1003 Y A gnd gnd nfet w=6u l=0.6u
+  ad=7.2p pd=8.4u as=12.6p ps=16.2u
M1004 gnd A Y gnd nfet w=6u l=0.6u
+  ad=12.6p pd=16.2u as=7.2p ps=8.4u
M1005 vdd A Y vdd pfet w=12u l=0.6u
+  ad=25.2p pd=28.2u as=14.4p ps=14.4u
M1006 gnd A Y gnd nfet w=6u l=0.6u
+  ad=7.2p pd=8.4u as=7.2p ps=8.4u
M1007 vdd A Y vdd pfet w=12u l=0.6u
+  ad=14.4p pd=14.4u as=14.4p ps=14.4u
.ends

.subckt INVX4 A Y vdd gnd
M1000 Y A vdd vdd pfet w=12u l=0.6u
+  ad=14.4p pd=14.4u as=25.2p ps=28.2u
M1001 Y A gnd gnd nfet w=6u l=0.6u
+  ad=7.2p pd=8.4u as=12.6p ps=16.2u
M1002 gnd A Y gnd nfet w=6u l=0.6u
+  ad=12.6p pd=16.2u as=7.2p ps=8.4u
M1003 vdd A Y vdd pfet w=12u l=0.6u
+  ad=25.2p pd=28.2u as=14.4p ps=14.4u
.ends

.subckt pong_pt1 gnd vdd clk down enable hsync p_tick reset rgb up vsync
X_1270_ _1916_/Q _1757_/C vdd gnd INVX1
X_1606_ _1606_/A _1606_/B _1651_/A _1607_/C vdd gnd OAI21X1
X_1399_ _1442_/B _1718_/B _1400_/A vdd gnd NAND2X1
X_1468_ _972_/A _975_/A _1469_/C vdd gnd NAND2X1
X_1537_ _1743_/A _1904_/B _1537_/C _1911_/D vdd gnd OAI21X1
X_981_ _981_/A _998_/B _981_/C _981_/Y vdd gnd OAI21X1
X_1322_ _1322_/A _1911_/Q _1912_/Q _1675_/A vdd gnd AOI21X1
X_1253_ _1253_/A _1253_/B _1254_/C vdd gnd NOR2X1
X_1184_ _1909_/Q _1487_/A _1300_/A vdd gnd NAND2X1
X_964_ _967_/B _964_/Y vdd gnd INVX1
X_1871_ _1871_/A _1871_/B _1871_/C _1872_/B vdd gnd OAI21X1
X_1940_ _1940_/R vdd _1940_/D _1940_/CLK _1940_/Q vdd gnd DFFSR
X_1236_ _950_/A _1787_/A _1236_/C _1262_/B vdd gnd AOI21X1
X_1305_ _1489_/B _1684_/B _1306_/B vdd gnd NAND2X1
X_1098_ _1845_/A _1111_/B _1101_/A vdd gnd NOR2X1
X_1167_ _949_/A _1167_/B _1210_/B vdd gnd NOR2X1
XBUFX2_insert0 _969_/Y _1074_/R vdd gnd BUFX2
X_947_ _947_/A _971_/C _947_/C _948_/A vdd gnd NAND3X1
X_1021_ _1021_/A _1063_/C _1072_/D vdd gnd NOR2X1
X_1854_ _1876_/A _1855_/B vdd gnd INVX1
X_1785_ _1785_/A _1785_/B _1786_/C vdd gnd NOR2X1
X_1923_ _1924_/R vdd _1923_/D _1940_/CLK _1923_/Q vdd gnd DFFSR
X_1219_ _1911_/Q _1487_/B _1226_/B vdd gnd NOR2X1
X_1570_ _1940_/Q _1787_/C _1583_/A vdd gnd NOR2X1
X_1004_ _1004_/A _998_/B _999_/Y _1069_/D vdd gnd OAI21X1
X_1768_ _1768_/A _1768_/B _1768_/C _1770_/A vdd gnd NOR3X1
X_1837_ _1937_/Q _1837_/B _1838_/A vdd gnd NAND2X1
X_1906_ _1906_/A _1907_/B _1907_/C _1939_/D vdd gnd OAI21X1
X_1699_ _1699_/A _1699_/B _1771_/B vdd gnd NAND2X1
X_1622_ _1635_/A _1622_/B _1627_/C vdd gnd NOR2X1
X_1553_ _1554_/B _1557_/A _1555_/B vdd gnd AND2X2
X_1484_ _973_/A _949_/A _1501_/B vdd gnd NOR2X1
X_1536_ _1602_/B _1536_/B _1536_/C _1537_/C vdd gnd NAND3X1
X_1605_ _1605_/A _1635_/A _1606_/B vdd gnd NOR2X1
X_1467_ _1467_/A _1467_/B _1476_/A vdd gnd AND2X2
X_1398_ _1398_/A _1398_/B _1718_/B vdd gnd NAND2X1
X_980_ _999_/A _999_/B _989_/B _981_/C vdd gnd OAI21X1
X_1321_ _1735_/C _1743_/A _1321_/C _1675_/B vdd gnd NOR3X1
X_1252_ _1482_/B _1914_/Q _1252_/C _1257_/B vdd gnd OAI21X1
X_1183_ _989_/A _1487_/A vdd gnd INVX2
X_1519_ _1543_/C _1543_/A _1520_/C vdd gnd OR2X2
X_963_ _963_/A _997_/C _999_/B _967_/B vdd gnd NAND3X1
X_1870_ _1870_/A _1870_/B _1872_/A vdd gnd NAND2X1
X_1304_ _1304_/A _1322_/A _1684_/B vdd gnd NAND2X1
X_1166_ _1166_/A _1166_/B _1166_/C _1339_/C vdd gnd OAI21X1
X_1235_ _950_/A _1787_/A _1251_/A _1236_/C vdd gnd OAI21X1
XBUFX2_insert1 _969_/Y _1071_/S vdd gnd BUFX2
X_1097_ _1932_/Q _1753_/B _1127_/B _1111_/B vdd gnd NAND3X1
X_1020_ _1020_/A _971_/B _999_/A _1063_/C vdd gnd AOI21X1
X_946_ _973_/B _972_/B _947_/C vdd gnd NOR2X1
X_1922_ _1924_/R vdd _1922_/D _1925_/CLK _1922_/Q vdd gnd DFFSR
X_1853_ _1853_/A _1853_/B _1876_/A _1856_/A vdd gnd NAND3X1
X_1784_ _1784_/A _1784_/B _1784_/C _1788_/A vdd gnd OAI21X1
X_1218_ _994_/A _1487_/B vdd gnd INVX1
X_1149_ _1287_/A _1208_/A _1289_/A vdd gnd NOR2X1
X_1003_ _1015_/B _1003_/B _997_/C _1004_/A vdd gnd NAND3X1
X_1905_ _1905_/A _1905_/B _1938_/D vdd gnd NAND2X1
X_1836_ _1837_/B _1937_/Q _1838_/B vdd gnd OR2X2
X_1767_ _1767_/A _1767_/B _1767_/C _1768_/C vdd gnd NAND3X1
X_1698_ _1698_/A _1705_/B _1699_/B vdd gnd NAND2X1
X_1621_ _1700_/C _1621_/B _1622_/B vdd gnd NOR2X1
X_1552_ _1552_/A _1552_/B _1557_/A vdd gnd NAND2X1
X_1483_ _1525_/C _1522_/A _1500_/B vdd gnd AND2X2
X_1819_ _1932_/Q _1928_/Q _1820_/A vdd gnd NOR2X1
X_1604_ _1650_/B _1635_/A vdd gnd INVX1
X_1535_ _1543_/B _1535_/B _1536_/B vdd gnd NAND2X1
X_1397_ _1921_/Q _1589_/C _1727_/A _1398_/A vdd gnd NAND3X1
X_1466_ _951_/B _1790_/A _1467_/B vdd gnd NAND2X1
X_1320_ _1677_/C _1677_/B _1702_/B vdd gnd AND2X2
X_1251_ _1251_/A _1255_/A _1252_/C vdd gnd AND2X2
X_1182_ _1182_/A _1261_/A _1199_/A vdd gnd NAND2X1
X_1449_ _1449_/A _1449_/B _1454_/C vdd gnd NAND2X1
X_1518_ _1543_/A _1543_/C _1530_/C vdd gnd NAND2X1
X_962_ _962_/A _962_/B _966_/A _997_/C vdd gnd OAI21X1
X_1303_ _1909_/Q _1908_/Q _1910_/Q _1304_/A vdd gnd OAI21X1
X_1096_ _1935_/Q _1845_/A vdd gnd INVX1
X_1165_ _1524_/B _1791_/A _1165_/C _1343_/A _1166_/C vdd gnd AOI22X1
X_1234_ _1256_/A _1255_/B _1251_/A vdd gnd NOR2X1
XBUFX2_insert2 _969_/Y _1082_/R vdd gnd BUFX2
X_945_ _975_/A _975_/B _971_/C vdd gnd NOR2X1
X_1852_ _1875_/B _1875_/A _1876_/A vdd gnd NAND2X1
X_1921_ _1925_/R vdd _1921_/D _1925_/CLK _1921_/Q vdd gnd DFFSR
X_1783_ _1783_/A _1783_/B _1783_/C _1784_/B vdd gnd AOI21X1
X_1217_ _1217_/A _1217_/B _1217_/C _1281_/B vdd gnd AOI21X1
X_1148_ _1930_/Q _1525_/B _1208_/A vdd gnd NOR2X1
X_1079_ _1083_/R vdd _1079_/D _1083_/CLK _975_/A vdd gnd DFFSR
X_1002_ _996_/C _991_/A _1013_/B _1003_/B vdd gnd OAI21X1
X_1904_ _1904_/A _1904_/B _1937_/D vdd gnd NOR2X1
X_1835_ _1928_/Q _1835_/B _1835_/C _1837_/B vdd gnd OAI21X1
X_1766_ _1766_/A _1766_/B _1767_/C vdd gnd AND2X2
X_1697_ _1924_/Q _1697_/B _1697_/C _1699_/A vdd gnd NAND3X1
X_1482_ _951_/A _1482_/B _1525_/C vdd gnd NOR2X1
X_1551_ _1913_/Q _1940_/Q _1552_/A vdd gnd NAND2X1
X_1620_ _1682_/A _1648_/B _1620_/C _1920_/D vdd gnd OAI21X1
X_1818_ _1818_/A _1845_/B _1820_/B vdd gnd NOR2X1
X_1749_ _1915_/Q _1749_/B _1749_/C _1914_/Q _1750_/C vdd gnd AOI22X1
X_1465_ _1465_/A _1465_/B _1465_/C _1467_/A vdd gnd NAND3X1
X_1534_ _1535_/B _1543_/B _1536_/C vdd gnd OR2X2
X_1603_ _1603_/A _1650_/B _1606_/A vdd gnd NOR2X1
X_1396_ _1920_/Q _1720_/C _1700_/C _1398_/B vdd gnd OAI21X1
X_1181_ _1261_/A _1182_/A _1199_/C vdd gnd OR2X2
X_1250_ _1914_/Q _1482_/B _1255_/A vdd gnd NAND2X1
X_1517_ _1517_/A _1517_/B _1543_/A vdd gnd NOR2X1
X_1448_ _994_/A _1920_/Q _1449_/A vdd gnd NAND2X1
X_1379_ _1919_/Q _1691_/C _1920_/Q _1781_/A vdd gnd OAI21X1
X_961_ _990_/A _990_/B _961_/C _962_/B vdd gnd NAND3X1
X_1302_ _1723_/A _1727_/C _1708_/B _1322_/A vdd gnd NAND3X1
X_1233_ _1915_/Q _1434_/A _1255_/B vdd gnd NOR2X1
X_1095_ _1161_/A _1161_/B _1163_/B vdd gnd NOR2X1
X_1164_ _1276_/B _1276_/C _1791_/A vdd gnd NAND2X1
XBUFX2_insert3 _969_/Y _1083_/R vdd gnd BUFX2
X_944_ _973_/A _972_/A _947_/A vdd gnd NOR2X1
X_1851_ _1851_/A _1851_/B _1898_/B vdd gnd NAND2X1
X_1920_ _1925_/R vdd _1920_/D _1925_/CLK _1920_/Q vdd gnd DFFSR
X_1782_ _1782_/A _1782_/B _1782_/C _1783_/C vdd gnd OAI21X1
X_1216_ _1216_/A _1216_/B _1217_/C vdd gnd OR2X2
X_1147_ _973_/A _1525_/B vdd gnd INVX1
X_1078_ _1083_/R vdd _1078_/D _1083_/CLK _972_/B vdd gnd DFFSR
X_1001_ _999_/C _1013_/B vdd gnd INVX1
XCLKBUF1_insert10 clk _1936_/CLK vdd gnd CLKBUF1
X_1834_ _1928_/Q _1834_/B _1835_/B _1835_/C vdd gnd NAND3X1
X_1765_ _1922_/Q _1765_/B _1767_/A vdd gnd NAND2X1
X_1903_ _1903_/A _1903_/B _1903_/C _1936_/D vdd gnd OAI21X1
X_1696_ _1696_/A _1696_/B _1771_/A vdd gnd AND2X2
X_1481_ _957_/A _999_/C _1522_/A vdd gnd NOR2X1
X_1550_ _1734_/C _1907_/A _1552_/B vdd gnd NAND2X1
X_1748_ _1914_/Q _1749_/C _1748_/C _1784_/A _1750_/A vdd gnd OAI22X1
X_1817_ _1871_/B _1871_/A _1870_/B vdd gnd NOR2X1
X_1679_ _1922_/Q _1765_/B _1679_/C _1771_/C vdd gnd AOI21X1
X_1602_ _1602_/A _1602_/B _1651_/A vdd gnd AND2X2
X_1464_ _1464_/A _1464_/B _1465_/C vdd gnd NOR2X1
X_1533_ _1533_/A _1533_/B _1543_/B vdd gnd NOR2X1
X_1395_ _1395_/A _1395_/B _1395_/C _1401_/C vdd gnd OAI21X1
X_1180_ _1191_/C _1191_/A _1190_/A _1182_/A vdd gnd OAI21X1
X_1516_ _1723_/A _1907_/A _1517_/B vdd gnd NOR2X1
X_1378_ _989_/A _989_/B _1378_/C _1691_/C _1395_/A vdd gnd AOI22X1
X_1447_ _1487_/B _1682_/A _1449_/B vdd gnd NAND2X1
X_960_ _989_/B _990_/B vdd gnd INVX1
X_1232_ _951_/A _1434_/A vdd gnd INVX1
X_1301_ _1487_/A _1497_/B _1301_/C _1306_/A vdd gnd OAI21X1
X_1094_ _1936_/Q _1935_/Q _1753_/B _1161_/A vdd gnd NAND3X1
X_1163_ _1904_/A _1163_/B _1276_/C vdd gnd NAND2X1
X_1781_ _1781_/A _1781_/B _1911_/Q _1782_/B vdd gnd AOI21X1
X_1850_ _1850_/A _1850_/B _1850_/C _1851_/A vdd gnd NAND3X1
X_1215_ _1215_/A _1215_/B _1215_/C _1217_/B vdd gnd NAND3X1
X_1146_ _1146_/A _1161_/B _1755_/B vdd gnd AND2X2
X_1077_ _1082_/R vdd _1077_/D _1083_/CLK _972_/A vdd gnd DFFSR
X_1000_ _999_/C _995_/A _995_/B _1015_/B vdd gnd NAND3X1
X_1902_ _1902_/A _1902_/B _1936_/Q _1903_/C vdd gnd OAI21X1
X_1833_ _1833_/A _1834_/B vdd gnd INVX1
X_1764_ _1764_/A _1797_/B vdd gnd INVX1
X_1695_ _1771_/C _1770_/B _1713_/C _1707_/C vdd gnd NAND3X1
X_1129_ _1141_/B _972_/A _1129_/C _1157_/A vdd gnd AOI21X1
X_1480_ _1938_/Q _1905_/A vdd gnd INVX1
X_1678_ _1766_/B _1766_/A _1767_/B _1679_/C vdd gnd NAND3X1
X_1816_ _1931_/Q _1928_/Q _1871_/B vdd gnd NOR2X1
X_1747_ _1747_/A _1783_/B _1748_/C vdd gnd NAND2X1
X_1532_ _1743_/A _1907_/A _1533_/B vdd gnd NOR2X1
X_1601_ _1601_/A _1601_/B _1917_/D vdd gnd NAND2X1
X_1394_ _1416_/B _1394_/B _1394_/C _1395_/C vdd gnd AOI21X1
X_1463_ _989_/A _1722_/C _1463_/C _1464_/B vdd gnd OAI21X1
X_1515_ _1940_/Q _1907_/A vdd gnd INVX2
X_1377_ _1453_/A _1453_/B _1378_/C vdd gnd OR2X2
X_1446_ _1446_/A _1460_/A _1464_/A vdd gnd NAND2X1
X_1162_ _1937_/Q _1904_/A vdd gnd INVX1
X_1231_ _951_/A _1787_/C _1256_/A vdd gnd NOR2X1
X_1300_ _1300_/A _1300_/B _1687_/B _1301_/C vdd gnd OAI21X1
X_1093_ _1109_/B _1753_/B vdd gnd INVX1
X_1429_ _1924_/Q _1925_/Q _1429_/C _1757_/A vdd gnd NAND3X1
X_1780_ _1780_/A _1780_/B _1780_/C _1783_/A vdd gnd OAI21X1
X_1214_ _1289_/B _1214_/B _1214_/C _1217_/A vdd gnd NAND3X1
X_1145_ _972_/A _1345_/C vdd gnd INVX1
X_1076_ _1082_/R vdd _1076_/D _1083_/CLK _973_/B vdd gnd DFFSR
X_1832_ _1832_/A _1841_/A _1875_/A _1835_/B vdd gnd NAND3X1
X_1901_ _1901_/A _1901_/B _1901_/C _1903_/B vdd gnd NAND3X1
X_1694_ _1694_/A _1694_/B _1694_/C _1712_/B _1770_/B vdd gnd OAI22X1
X_1763_ _1927_/Q _1798_/A vdd gnd INVX1
X_1128_ _1524_/A _1137_/B _1129_/C vdd gnd NOR2X1
X_1059_ _1059_/A _1059_/B _1059_/C _1060_/A vdd gnd OAI21X1
X_1815_ _1815_/A _1845_/B _1871_/A vdd gnd NOR2X1
X_1746_ _1785_/A _1747_/A vdd gnd INVX1
X_1677_ _1702_/A _1677_/B _1677_/C _1767_/B vdd gnd NAND3X1
X_1462_ _1462_/A _1465_/B vdd gnd INVX1
X_1531_ _1911_/Q _1940_/Q _1533_/A vdd gnd NOR2X1
X_1600_ _1722_/B _1648_/B _1601_/B vdd gnd NAND2X1
X_1393_ _1487_/B _1593_/A _1394_/C vdd gnd NOR2X1
X_1729_ _1782_/A _1731_/B vdd gnd INVX1
X_1445_ _1457_/B _1445_/B _1446_/A vdd gnd NOR2X1
X_1514_ _1910_/Q _1940_/Q _1517_/A vdd gnd NOR2X1
X_1376_ _1918_/Q _1487_/A _1453_/B vdd gnd NAND2X1
X_1230_ _1915_/Q _1787_/C vdd gnd INVX2
X_1092_ _1934_/Q _1933_/Q _1109_/B vdd gnd NAND2X1
X_1161_ _1161_/A _1161_/B _1937_/Q _1276_/B vdd gnd OAI21X1
X_1428_ _1649_/B _1733_/B _1790_/A _1757_/B vdd gnd OAI21X1
X_1359_ _1700_/C _1589_/C _1727_/A _1736_/B vdd gnd NAND3X1
X_1213_ _1213_/A _1213_/B _1213_/C _1281_/A vdd gnd AOI21X1
X_1144_ _1144_/A _1144_/B _1144_/C _1158_/C vdd gnd NAND3X1
X_1075_ _1082_/R vdd _1075_/D _1082_/CLK _973_/A vdd gnd DFFSR
X_1831_ _1853_/A _1875_/B _1841_/A vdd gnd AND2X2
X_1900_ _1900_/A _1900_/B _1901_/B vdd gnd NAND2X1
X_1693_ _1728_/A _1728_/B _1710_/A _1694_/C vdd gnd OAI21X1
X_1762_ _1907_/B _1762_/B _1762_/C _1926_/D vdd gnd OAI21X1
X_1058_ _975_/B _1059_/C vdd gnd INVX1
X_1127_ _1127_/A _1127_/B _1137_/B vdd gnd NAND2X1
X_1745_ _1780_/C _1779_/B _1745_/C _1785_/A vdd gnd NAND3X1
X_1814_ _1868_/C _1868_/A _1867_/A _1870_/A vdd gnd OAI21X1
X_1676_ _1700_/C _1700_/B _1700_/A _1766_/B vdd gnd NAND3X1
X_1392_ _1416_/B _1416_/A _1417_/B _1395_/B vdd gnd NAND3X1
X_1461_ _1464_/A _1461_/B _1461_/C _1476_/B vdd gnd OAI21X1
X_1530_ _1723_/A _1907_/A _1530_/C _1535_/B vdd gnd OAI21X1
X_1728_ _1728_/A _1728_/B _1779_/B _1732_/A vdd gnd OAI21X1
X_1659_ _1936_/Q _1935_/Q _1660_/B vdd gnd NOR2X1
X_1375_ _1375_/A _1453_/A vdd gnd INVX1
X_1444_ _1457_/A _1444_/B _1445_/B vdd gnd NAND2X1
X_1513_ _1727_/C _1906_/A _1513_/C _1543_/C vdd gnd OAI21X1
X_1160_ _976_/C _1524_/B vdd gnd INVX1
X_1091_ _1932_/Q _1127_/B _1161_/B vdd gnd NAND2X1
X_1358_ _1406_/A _1371_/C vdd gnd INVX1
X_1427_ _1925_/Q _1790_/A vdd gnd INVX2
X_1289_ _1289_/A _1289_/B _1290_/B vdd gnd NAND2X1
X_1212_ _1216_/B _1216_/A _1213_/C vdd gnd NAND2X1
X_1143_ _1144_/C _1143_/B _1143_/C _1159_/B vdd gnd NAND3X1
X_1074_ _1074_/R vdd _1074_/D _1082_/CLK _949_/A vdd gnd DFFSR
X_1761_ _1761_/A _1774_/C _1764_/A _1762_/B vdd gnd AOI21X1
X_1830_ _1830_/A _1855_/A _1875_/B vdd gnd NOR2X1
X_1692_ _1780_/C _1728_/B vdd gnd INVX1
X_1126_ _1930_/Q _1929_/Q _1931_/Q _1127_/A vdd gnd OAI21X1
X_1057_ _975_/B _1057_/B _1057_/C _1063_/B vdd gnd NAND3X1
X_1744_ _1744_/A _1744_/B _1744_/C _1783_/B vdd gnd AOI21X1
X_1813_ _1930_/Q _1927_/Q _1868_/A vdd gnd NOR2X1
X_1675_ _1675_/A _1675_/B _1921_/Q _1766_/A vdd gnd OAI21X1
X_1109_ _1161_/B _1109_/B _1111_/A _1121_/B vdd gnd OAI21X1
X_1460_ _1460_/A _1460_/B _1460_/C _1461_/C vdd gnd AOI21X1
X_1391_ _1391_/A _1394_/B _1417_/B vdd gnd NOR2X1
X_1658_ _1934_/Q _1933_/Q _1842_/B vdd gnd NOR2X1
X_1727_ _1727_/A _1727_/B _1727_/C _1779_/B vdd gnd OAI21X1
X_1589_ _1722_/C _1790_/A _1589_/C _1590_/B vdd gnd NAND3X1
X_1512_ _1727_/C _1904_/B _1512_/C _1909_/D vdd gnd OAI21X1
X_1374_ _989_/B _1722_/B _1375_/A vdd gnd NAND2X1
X_1443_ _999_/C _1700_/C _1444_/B vdd gnd NAND2X1
X_1090_ _1815_/A _1884_/A _1167_/B _1127_/B vdd gnd NAND3X1
X_1426_ _1482_/B _1787_/B _1434_/A _1787_/D _1433_/A vdd gnd OAI22X1
X_1288_ _1288_/A _1288_/B _1290_/A _1288_/D _1290_/C vdd gnd OAI22X1
X_1357_ _1734_/A _1734_/B _957_/A _1406_/A vdd gnd OAI21X1
X_1142_ _1157_/A _1142_/B _1142_/C _1143_/C vdd gnd AOI21X1
X_1211_ _1211_/A _1211_/B _1216_/B vdd gnd NOR2X1
X_999_ _999_/A _999_/B _999_/C _999_/Y vdd gnd OAI21X1
X_1073_ _1074_/R vdd _1073_/D _1082_/CLK _951_/B vdd gnd DFFSR
X_1409_ _1917_/Q _1918_/Q _1691_/B vdd gnd NAND2X1
X_1760_ _1760_/A _1789_/A _1760_/C _1774_/C vdd gnd AOI21X1
X_1691_ _1909_/Q _1691_/B _1691_/C _1780_/C vdd gnd NAND3X1
X_1125_ _973_/B _1524_/A vdd gnd INVX1
X_1056_ _1059_/A _1057_/B vdd gnd INVX1
X_1889_ _1898_/A _1889_/B _1889_/C _1890_/A vdd gnd NAND3X1
X_1743_ _1743_/A _1781_/B _1781_/A _1744_/B vdd gnd NAND3X1
X_1812_ _1929_/Q _1926_/Q _1868_/C vdd gnd NAND2X1
X_1674_ _1674_/A _1674_/B _1677_/C _1765_/B vdd gnd OAI21X1
X_1039_ _1047_/B _1047_/C _1047_/A _1043_/A vdd gnd OAI21X1
X_1108_ _1291_/B _1161_/B _1824_/A _1111_/A vdd gnd OAI21X1
X_1390_ _1489_/B _1611_/A _1394_/B vdd gnd NOR2X1
X_1588_ _1702_/A _1700_/C _1588_/C _1640_/B vdd gnd NAND3X1
X_1726_ _1731_/A _1782_/C _1726_/C _1785_/B vdd gnd NAND3X1
X_1657_ _1657_/A _1907_/C _1907_/B vdd gnd NAND2X1
X_1511_ _1513_/C _1511_/B _1904_/B _1512_/C vdd gnd NAND3X1
X_1442_ _1921_/Q _1442_/B _1457_/A vdd gnd NAND2X1
X_1373_ _1722_/B _1722_/C _1691_/C vdd gnd NAND2X1
X_1709_ _1780_/A _1709_/B _1745_/C vdd gnd NOR2X1
X_1425_ _1749_/B _1787_/D vdd gnd INVX1
X_1356_ _1922_/Q _1735_/A _1734_/B vdd gnd NOR2X1
X_1287_ _1287_/A _1287_/B _1287_/C _1288_/D vdd gnd OAI21X1
X_1210_ _1210_/A _1210_/B _1211_/B vdd gnd AND2X2
X_998_ _998_/A _998_/B _998_/C _998_/Y vdd gnd OAI21X1
X_1141_ _972_/A _1141_/B _1157_/B _1142_/C vdd gnd OAI21X1
X_1072_ _1074_/R vdd _1072_/D _1082_/CLK _951_/A vdd gnd DFFSR
X_1408_ _1408_/A _1453_/A _1465_/A vdd gnd NOR2X1
X_1339_ _1339_/A _1339_/B _1339_/C _1478_/A vdd gnd NAND3X1
X_1690_ _1780_/A _1728_/A vdd gnd INVX1
X_1055_ _1055_/A _1063_/C _1079_/D vdd gnd NOR2X1
X_1124_ _1161_/B _1146_/A _1141_/B vdd gnd NAND2X1
X_1888_ _1902_/A _1902_/B _1932_/Q _1890_/C vdd gnd OAI21X1
X_1811_ _1930_/Q _1927_/Q _1867_/A vdd gnd NAND2X1
X_1742_ _1911_/Q _1742_/B _1742_/C _1744_/A vdd gnd NAND3X1
X_1673_ _1768_/A _1768_/B _1713_/C vdd gnd NOR2X1
X_1107_ _1933_/Q _1291_/B vdd gnd INVX1
X_1038_ _972_/A _1047_/A vdd gnd INVX1
X_1725_ _1911_/Q _1781_/B _1781_/A _1782_/C vdd gnd NAND3X1
X_1656_ _1757_/C _1656_/B _1656_/C _1657_/A vdd gnd NAND3X1
X_1587_ _1924_/Q _1923_/Q _1588_/C vdd gnd NOR2X1
X_1510_ _1510_/A _1510_/B _1511_/B vdd gnd OR2X2
X_1441_ _1441_/A _1457_/C _1457_/B vdd gnd NAND2X1
X_1372_ _1406_/B _1406_/A _1401_/B vdd gnd AND2X2
X_1708_ _1722_/B _1708_/B _1709_/B vdd gnd NOR2X1
X_1639_ _1639_/A _1639_/B _1923_/D vdd gnd NOR2X1
X_1355_ _1589_/C _1727_/A _1700_/C _1735_/A vdd gnd AOI21X1
X_1424_ _1733_/B _1649_/B _1424_/C _1749_/B vdd gnd OAI21X1
X_1286_ _1932_/Q _1345_/C _1288_/B vdd gnd NOR2X1
X_997_ _997_/A _997_/B _997_/C _998_/A vdd gnd NAND3X1
X_1140_ _1471_/B _1140_/B _1140_/C _1157_/B vdd gnd NAND3X1
X_1071_ vdd _1071_/S _1071_/D _1937_/CLK _950_/A vdd gnd DFFSR
X_1338_ _1338_/A _1338_/B _1338_/C _1338_/D _1339_/B vdd gnd AOI22X1
X_1407_ _989_/B _1722_/B _1408_/A vdd gnd NOR2X1
X_1269_ _1787_/C _1704_/B _1916_/Q _1335_/A vdd gnd OAI21X1
X_1123_ _1818_/A _1123_/B _1146_/A vdd gnd NAND2X1
X_1054_ _1059_/B _1059_/A _1054_/C _1055_/A vdd gnd OAI21X1
X_1887_ _1887_/A _1899_/B _1887_/C _1931_/D vdd gnd OAI21X1
X_1741_ _1741_/A _1782_/A _1744_/C vdd gnd NAND2X1
X_1810_ _1932_/Q _1931_/Q _1928_/Q _1822_/A vdd gnd OAI21X1
X_1672_ _1672_/A _1706_/B _1768_/B vdd gnd NAND2X1
X_1106_ _1934_/Q _1824_/A vdd gnd INVX1
X_1037_ _1037_/A _1063_/C _1076_/D vdd gnd NOR2X1
X_1939_ vdd _1939_/S _1939_/D _1939_/CLK _1939_/Q vdd gnd DFFSR
X_1724_ _1782_/A _1741_/A _1726_/C vdd gnd AND2X2
X_1655_ _1655_/A _1656_/B vdd gnd INVX1
X_1586_ _1586_/A _1586_/B _1916_/D vdd gnd NAND2X1
X_1371_ _1371_/A _1406_/B _1371_/C _1419_/B vdd gnd AOI21X1
X_1440_ _1922_/Q _1440_/B _1457_/C vdd gnd NAND2X1
X_1638_ _1651_/A _1638_/B _1923_/Q _1639_/A vdd gnd AOI21X1
X_1707_ _1769_/B _1769_/A _1707_/C _1796_/B vdd gnd NAND3X1
X_1569_ _1787_/A _1907_/A _1569_/C _1575_/C vdd gnd OAI21X1
X_1354_ _1781_/B _1632_/A _1734_/A vdd gnd AND2X2
X_1285_ _1345_/C _1932_/Q _1285_/C _1290_/A vdd gnd OAI21X1
X_1423_ _1704_/C _1733_/B _1698_/A _1424_/C vdd gnd OAI21X1
X_996_ _996_/A _996_/B _996_/C _997_/B vdd gnd OAI21X1
X_1070_ _1071_/S vdd _1070_/D _1937_/CLK _957_/A vdd gnd DFFSR
X_1406_ _1406_/A _1406_/B _1406_/C _1418_/D vdd gnd NAND3X1
X_1268_ _1914_/Q _1326_/B _1326_/A _1704_/B vdd gnd NAND3X1
X_1337_ _1434_/A _1337_/B _1790_/B _1525_/A _1338_/B vdd gnd AOI22X1
X_1199_ _1199_/A _1199_/B _1199_/C _1214_/B vdd gnd NAND3X1
X_1122_ _1144_/B _1144_/A _1143_/B vdd gnd AND2X2
X_979_ _990_/B _997_/C _981_/A vdd gnd NAND2X1
X_1053_ _972_/B _975_/A _1059_/A vdd gnd NAND2X1
X_1886_ _1892_/B _1886_/B _1887_/A vdd gnd OR2X2
X_1740_ _1740_/A _1778_/A _1740_/C _1784_/A vdd gnd NAND3X1
X_1671_ _1924_/Q _1705_/B _1706_/B vdd gnd NAND2X1
X_1105_ _1343_/A _1165_/C _1472_/B _1793_/B _1166_/A vdd gnd OAI22X1
X_1036_ _1036_/A _1036_/B _1037_/A vdd gnd NAND2X1
X_1869_ _1869_/A _1869_/B _1883_/B vdd gnd NAND2X1
X_1938_ _1939_/S vdd _1938_/D _1939_/CLK _1938_/Q vdd gnd DFFSR
X_1723_ _1723_/A _1723_/B _1723_/C _1741_/A vdd gnd NAND3X1
X_1654_ _1654_/A _1790_/B _1907_/C vdd gnd NOR2X1
X_1585_ _1916_/Q _1585_/B _1586_/A vdd gnd NAND2X1
X_1019_ _976_/B _948_/A _1020_/A vdd gnd NAND2X1
X_1370_ _1440_/B _1733_/B _1733_/C _1406_/B vdd gnd NAND3X1
X_1706_ _1706_/A _1706_/B _1769_/A vdd gnd AND2X2
X_1637_ _1704_/C _1637_/B _1639_/B vdd gnd NOR2X1
X_1499_ _1522_/C _1522_/B _1500_/C vdd gnd AND2X2
X_1568_ _1787_/A _1904_/B _1568_/C _1914_/D vdd gnd OAI21X1
X_1422_ _1924_/Q _1698_/A vdd gnd INVX2
X_1284_ _1284_/A _1291_/D vdd gnd INVX1
X_1353_ _1702_/A _1700_/C _1632_/A vdd gnd NOR2X1