* XSpice netlist created from SPICE and liberty sources by spi2xspice.py
*SPICE netlist created from verilog structural netlist module array16 by vlog2Spice (qflow)
** Start of included library /usr/local/share/qflow/tech/etri050/etri050_stdcells.sp
* NGSPICE file created from khu_etri050_stdcells.ext - technology: scmos
** End of included library /usr/local/share/qflow/tech/etri050/etri050_stdcells.sp
.subckt array16 a_vdd a_gnd a_a_0_ a_a_1_ a_a_2_ a_a_3_ a_a_4_ a_a_5_ a_a_6_ a_a_7_ a_a_8_ a_a_9_ a_a_10_ a_a_11_ a_a_12_ a_a_13_ a_a_14_ a_a_15_ a_b_0_ a_b_1_ a_b_2_ a_b_3_ a_b_4_ a_b_5_ a_b_6_ a_b_7_ a_b_8_ a_b_9_ a_b_10_ a_b_11_ a_b_12_ a_b_13_ a_b_14_ a_b_15_ a_c_0_ a_c_1_ a_c_2_ a_c_3_ a_c_4_ a_c_5_ a_c_6_ a_c_7_ a_c_8_ a_c_9_ a_c_10_ a_c_11_ a_c_12_ a_c_13_ a_c_14_ a_c_15_ a_c_16_ a_c_17_ a_c_18_ a_c_19_ a_c_20_ a_c_21_ a_c_22_ a_c_23_ a_c_24_ a_c_25_ a_c_26_ a_c_27_ a_c_28_ a_c_29_ a_c_30_ a_c_31_
A_3054_ [q1_0_ q0_8_] _415_ d_lut_NOR2X1
A_3055_ [q1_0_ q0_8_] _416_ d_lut_NAND2X1
A_3056_ [_416_] _417_ d_lut_INVX1
A_3057_ [_417_ _415_] _418_ d_lut_OR2X2
A_3058_ [_418_] _419_ d_lut_INVX1
A_3059_ [_419_ q2_0_] _420_ d_lut_AND2X2
A_3060_ [q2_0_ _419_] _421_ d_lut_NOR2X1
A_3061_ [_421_ _420_] _3053__8_ d_lut_NOR2X1
A_3062_ [\z2.z1.z1.z1.s\ q0_9_] _422_ d_lut_NAND2X1
A_3063_ [\z2.z1.z1.z1.s\ q0_9_] _423_ d_lut_OR2X2
A_3064_ [_422_ _423_] _424_ d_lut_NAND2X1
A_3065_ [_416_ _424_] _425_ d_lut_NOR2X1
A_3066_ [_422_ _423_ _417_] _426_ d_lut_AOI21X1
A_3067_ [_426_ _425_] _427_ d_lut_NOR2X1
A_3068_ [\z3.z1.z1.z1.s\ _427_] _428_ d_lut_NAND2X1
A_3069_ [_427_ \z3.z1.z1.z1.s\] _429_ d_lut_OR2X2
A_3070_ [_420_ _428_ _429_] _430_ d_lut_NAND3X1
A_3071_ [_430_] _431_ d_lut_INVX1
A_3072_ [_428_] _432_ d_lut_INVX1
A_3073_ [\z2.z1.z1.z1.s\ q0_9_] _0_ d_lut_NOR2X1
A_3074_ [_416_ _0_ _422_] _1_ d_lut_OAI21X1
A_3075_ [q1_2_ q0_10_] _2_ d_lut_NOR2X1
A_3076_ [q1_2_ q0_10_] _3_ d_lut_AND2X2
A_3077_ [_2_ _3_] _4_ d_lut_NOR2X1
A_3078_ [_1_ _4_] _5_ d_lut_NAND2X1
A_3079_ [_4_ _1_] _6_ d_lut_OR2X2
A_3080_ [q2_2_ _5_ _6_] _7_ d_lut_NAND3X1
A_3081_ [q2_2_] _8_ d_lut_INVX1
A_3082_ [_5_ _6_] _9_ d_lut_NAND2X1
A_3083_ [_8_ _9_] _10_ d_lut_NAND2X1
A_3084_ [_7_ _10_ _432_] _11_ d_lut_AOI21X1
A_3085_ [_7_ _10_ _432_] _12_ d_lut_NAND3X1
A_3086_ [_12_] _13_ d_lut_INVX1
A_3087_ [_11_ _13_] _14_ d_lut_NOR2X1
A_3088_ [_431_ _14_] _15_ d_lut_NAND2X1
A_3089_ [_15_] _16_ d_lut_INVX1
A_3090_ [_431_ _14_] _17_ d_lut_NOR2X1
A_3091_ [_17_ _16_] _3053__10_ d_lut_NOR2X1
A_3092_ [q1_2_ q0_10_] _18_ d_lut_NAND2X1
A_3093_ [q1_3_] _19_ d_lut_INVX1
A_3094_ [q0_11_ _19_] _20_ d_lut_NAND2X1
A_3095_ [q0_11_] _21_ d_lut_INVX1
A_3096_ [q1_3_ _21_] _22_ d_lut_NAND2X1
A_3097_ [_20_ _22_] _23_ d_lut_NAND2X1
A_3098_ [_18_ _23_ _5_] _24_ d_lut_NAND3X1
A_3099_ [_18_ _5_] _25_ d_lut_NAND2X1
A_3100_ [_20_ _22_ _25_] _26_ d_lut_NAND3X1
A_3101_ [_24_ _26_] _27_ d_lut_NAND2X1
A_3102_ [q2_3_ _27_] _28_ d_lut_NAND2X1
A_3103_ [q2_3_] _29_ d_lut_INVX1
A_3104_ [_29_ _24_ _26_] _30_ d_lut_NAND3X1
A_3105_ [_30_ _28_] _31_ d_lut_NAND2X1
A_3106_ [_8_ _9_ _31_] _32_ d_lut_OAI21X1
A_3107_ [_7_] _33_ d_lut_INVX1
A_3108_ [_33_ _30_ _28_] _34_ d_lut_NAND3X1
A_3109_ [_34_ _32_] _35_ d_lut_NAND2X1
A_3110_ [_13_ _16_ _35_] _36_ d_lut_OAI21X1
A_3111_ [_430_ _11_ _12_] _37_ d_lut_OAI21X1
A_3112_ [_35_ _37_] _38_ d_lut_OR2X2
A_3113_ [_38_ _36_] _3053__11_ d_lut_NAND2X1
A_3114_ [_34_] _39_ d_lut_INVX1
A_3115_ [_37_ _32_ _39_] _40_ d_lut_AOI21X1
A_3116_ [_28_] _41_ d_lut_INVX1
A_3117_ [q2_4_] _42_ d_lut_INVX1
A_3118_ [_1_ _23_ _4_] _43_ d_lut_NAND3X1
A_3119_ [_19_ _21_ _18_] _44_ d_lut_AOI21X1
A_3120_ [q1_3_ q0_11_ _44_] _45_ d_lut_AOI21X1
A_3121_ [q1_4_] _46_ d_lut_INVX1
A_3122_ [q0_12_] _47_ d_lut_INVX1
A_3123_ [_46_ _47_] _48_ d_lut_NAND2X1
A_3124_ [q1_4_ q0_12_] _49_ d_lut_NAND2X1
A_3125_ [_49_ _48_] _50_ d_lut_NAND2X1
A_3126_ [_43_ _45_ _50_] _51_ d_lut_AOI21X1
A_3127_ [_51_] _52_ d_lut_INVX1
A_3128_ [_43_ _45_] _53_ d_lut_AND2X2
A_3129_ [q1_4_ q0_12_] _54_ d_lut_NOR2X1
A_3130_ [q1_4_ q0_12_] _55_ d_lut_AND2X2
A_3131_ [_54_ _55_ _53_] _56_ d_lut_OAI21X1
A_3132_ [_52_ _56_] _57_ d_lut_NAND2X1
A_3133_ [_57_ _42_] _58_ d_lut_OR2X2
A_3134_ [_56_ _52_ q2_4_] _59_ d_lut_AOI21X1
A_3135_ [_59_] _60_ d_lut_INVX1
A_3136_ [_41_ _60_ _58_] _61_ d_lut_NAND3X1
A_3137_ [_42_ _57_] _62_ d_lut_NOR2X1
A_3138_ [_59_ _62_ _28_] _63_ d_lut_OAI21X1
A_3139_ [_63_ _61_] _64_ d_lut_NAND2X1
A_3140_ [_64_ _40_] _65_ d_lut_NOR2X1
A_3141_ [_40_ _64_] _66_ d_lut_AND2X2
A_3142_ [_65_ _66_] _3053__12_ d_lut_NOR2X1
A_3143_ [_64_ _40_ _61_] _67_ d_lut_OAI21X1
A_3144_ [q2_5_] _68_ d_lut_INVX1
A_3145_ [q1_5_ q0_13_] _69_ d_lut_NAND2X1
A_3146_ [q1_5_] _70_ d_lut_INVX1
A_3147_ [q0_13_] _71_ d_lut_INVX1
A_3148_ [_70_ _71_] _72_ d_lut_NAND2X1
A_3149_ [_69_ _72_] _73_ d_lut_NAND2X1
A_3150_ [_46_ _47_ _73_] _74_ d_lut_OAI21X1
A_3151_ [q0_13_ _70_] _75_ d_lut_NAND2X1
A_3152_ [q1_5_ _71_] _76_ d_lut_NAND2X1
A_3153_ [_75_ _76_] _77_ d_lut_NAND2X1
A_3154_ [_55_ _51_ _77_] _78_ d_lut_OAI21X1
A_3155_ [_51_ _74_ _78_] _79_ d_lut_OAI21X1
A_3156_ [_68_ _79_] _80_ d_lut_NOR2X1
A_3157_ [_79_ _68_] _81_ d_lut_AND2X2
A_3158_ [_80_ _81_ _58_] _82_ d_lut_OAI21X1
A_3159_ [_79_ _68_] _83_ d_lut_OR2X2
A_3160_ [_68_ _79_] _84_ d_lut_NAND2X1
A_3161_ [_62_ _84_ _83_] _85_ d_lut_NAND3X1
A_3162_ [_82_ _85_] _86_ d_lut_NAND2X1
A_3163_ [_86_ _67_] _87_ d_lut_NAND2X1
A_3164_ [_67_ _86_] _88_ d_lut_OR2X2
A_3165_ [_87_ _88_] _3053__13_ d_lut_NAND2X1
A_3166_ [_64_ _40_ _86_] _89_ d_lut_NOR3X1
A_3167_ [_61_ _86_ _85_] _90_ d_lut_OAI21X1
A_3168_ [_54_ _55_] _91_ d_lut_NOR2X1
A_3169_ [_77_ _91_] _92_ d_lut_NAND2X1
A_3170_ [_43_ _45_ _92_] _93_ d_lut_AOI21X1
A_3171_ [q1_5_ q0_13_] _94_ d_lut_NOR2X1
A_3172_ [_49_ _94_ _69_] _95_ d_lut_OAI21X1
A_3173_ [q1_6_ q0_14_] _96_ d_lut_NOR2X1
A_3174_ [q1_6_ q0_14_] _97_ d_lut_AND2X2
A_3175_ [_96_ _97_] _98_ d_lut_NOR2X1
A_3176_ [_95_ _93_ _98_] _99_ d_lut_OAI21X1
A_3177_ [q1_6_] _100_ d_lut_INVX1
A_3178_ [q0_14_] _101_ d_lut_INVX1
A_3179_ [_100_ _101_] _102_ d_lut_NAND2X1
A_3180_ [q1_6_ q0_14_] _103_ d_lut_NAND2X1
A_3181_ [_103_ _102_] _104_ d_lut_NAND2X1
A_3182_ [_69_ _104_ _78_] _105_ d_lut_NAND3X1
A_3183_ [q2_6_ _99_ _105_] _106_ d_lut_NAND3X1
A_3184_ [q2_6_] _107_ d_lut_INVX1
A_3185_ [_99_ _105_] _108_ d_lut_NAND2X1
A_3186_ [_107_ _108_] _109_ d_lut_NAND2X1
A_3187_ [_106_ _109_] _110_ d_lut_NAND2X1
A_3188_ [_110_ _83_] _111_ d_lut_OR2X2
A_3189_ [_68_ _79_ _110_] _112_ d_lut_OAI21X1
A_3190_ [_111_ _112_] _113_ d_lut_AND2X2
A_3191_ [_90_ _89_ _113_] _114_ d_lut_OAI21X1
A_3192_ [_85_] _115_ d_lut_INVX1
A_3193_ [_67_ _82_ _115_] _116_ d_lut_AOI21X1
A_3194_ [_112_ _111_] _117_ d_lut_NAND2X1
A_3195_ [_117_ _116_] _118_ d_lut_NAND2X1
A_3196_ [_118_ _114_] _3053__14_ d_lut_AND2X2
A_3197_ [_117_ _116_ _111_] _119_ d_lut_OAI21X1
A_3198_ [_100_ _101_ _99_] _120_ d_lut_OAI21X1
A_3199_ [q1_7_] _121_ d_lut_INVX1
A_3200_ [q0_15_ _121_] _122_ d_lut_NAND2X1
A_3201_ [q0_15_] _123_ d_lut_INVX1
A_3202_ [q1_7_ _123_] _124_ d_lut_NAND2X1
A_3203_ [_122_ _124_] _125_ d_lut_NAND2X1
A_3204_ [_125_ _120_] _126_ d_lut_NAND2X1
A_3205_ [_120_ _125_] _127_ d_lut_OR2X2
A_3206_ [q2_7_ _126_ _127_] _128_ d_lut_NAND3X1
A_3207_ [q2_7_] _129_ d_lut_INVX1
A_3208_ [q1_7_ q0_15_] _130_ d_lut_NAND2X1
A_3209_ [_121_ _123_] _131_ d_lut_NAND2X1
A_3210_ [_130_ _131_] _132_ d_lut_NAND2X1
A_3211_ [_132_ _120_] _133_ d_lut_NAND2X1
A_3212_ [_120_ _132_] _134_ d_lut_OR2X2
A_3213_ [_129_ _133_ _134_] _135_ d_lut_NAND3X1
A_3214_ [_128_ _135_] _136_ d_lut_NAND2X1
A_3215_ [_107_ _108_ _136_] _137_ d_lut_OAI21X1
A_3216_ [_106_] _138_ d_lut_INVX1
A_3217_ [_138_ _128_ _135_] _139_ d_lut_NAND3X1
A_3218_ [_139_ _137_] _140_ d_lut_NAND2X1
A_3219_ [_119_ _140_] _141_ d_lut_OR2X2
A_3220_ [_140_ _119_] _142_ d_lut_NAND2X1
A_3221_ [_142_ _141_] _3053__15_ d_lut_NAND2X1
A_3222_ [_134_ _133_ _129_] _143_ d_lut_AOI21X1
A_3223_ [_50_ _73_] _144_ d_lut_NOR2X1
A_3224_ [_104_ _132_] _145_ d_lut_NOR2X1
A_3225_ [_144_ _145_] _146_ d_lut_NAND2X1
A_3226_ [q1_7_ q0_15_ _97_] _147_ d_lut_OAI21X1
A_3227_ [_121_ _123_ _147_] _148_ d_lut_OAI21X1
A_3228_ [_145_ _95_ _148_] _149_ d_lut_AOI21X1
A_3229_ [_146_ _53_ _149_] _150_ d_lut_OAI21X1
A_3230_ [q1_8_ _150_] _151_ d_lut_NAND2X1
A_3231_ [q1_8_] _152_ d_lut_INVX1
A_3232_ [_45_ _43_] _153_ d_lut_NAND2X1
A_3233_ [_125_ _98_] _154_ d_lut_NAND2X1
A_3234_ [_92_ _154_] _155_ d_lut_NOR2X1
A_3235_ [_95_ _125_ _98_] _156_ d_lut_NAND3X1
A_3236_ [_130_ _147_ _156_] _157_ d_lut_NAND3X1
A_3237_ [_155_ _153_ _157_] _158_ d_lut_AOI21X1
A_3238_ [_152_ _158_] _159_ d_lut_NAND2X1
A_3239_ [q3_0_ q2_8_] _160_ d_lut_NAND2X1
A_3240_ [q3_0_] _161_ d_lut_INVX1
A_3241_ [q2_8_] _162_ d_lut_INVX1
A_3242_ [_161_ _162_] _163_ d_lut_NAND2X1
A_3243_ [_160_ _163_] _164_ d_lut_NAND2X1
A_3244_ [_164_] _165_ d_lut_INVX1
A_3245_ [_165_ _159_ _151_] _166_ d_lut_NAND3X1
A_3246_ [_144_ _145_ _153_] _167_ d_lut_NAND3X1
A_3247_ [_167_ _149_ _152_] _168_ d_lut_AOI21X1
A_3248_ [_159_] _169_ d_lut_INVX1
A_3249_ [_168_ _169_ _164_] _170_ d_lut_OAI21X1
A_3250_ [_166_ _170_ _143_] _171_ d_lut_NAND3X1
A_3251_ [_166_ _170_] _172_ d_lut_NAND2X1
A_3252_ [_128_ _172_] _173_ d_lut_NAND2X1
A_3253_ [_171_ _173_] _174_ d_lut_AND2X2
A_3254_ [_111_ _139_] _175_ d_lut_AND2X2
A_3255_ [_117_ _116_ _175_] _176_ d_lut_OAI21X1
A_3256_ [_137_ _176_] _177_ d_lut_NAND2X1
A_3257_ [_174_ _177_] _178_ d_lut_NAND2X1
A_3258_ [_174_] _179_ d_lut_INVX1
A_3259_ [_106_ _136_ _114_ _175_] _180_ d_lut_AOI22X1
A_3260_ [_179_ _180_] _181_ d_lut_NAND2X1
A_3261_ [_181_ _178_] _3053__16_ d_lut_NAND2X1
A_3262_ [_179_ _177_ _171_] _182_ d_lut_OAI21X1
A_3263_ [_161_ _162_ _166_] _183_ d_lut_OAI21X1
A_3264_ [q1_8_ q1_9_ _150_] _184_ d_lut_NAND3X1
A_3265_ [q1_9_] _185_ d_lut_INVX1
A_3266_ [_152_ _158_ _185_] _186_ d_lut_OAI21X1
A_3267_ [\z4.z1.z1.z1.s\] _187_ d_lut_INVX1
A_3268_ [q2_9_] _188_ d_lut_INVX1
A_3269_ [_187_ _188_] _189_ d_lut_NAND2X1
A_3270_ [\z4.z1.z1.z1.s\ q2_9_] _190_ d_lut_NAND2X1
A_3271_ [_190_ _189_] _191_ d_lut_NAND2X1
A_3272_ [_191_] _192_ d_lut_INVX1
A_3273_ [_192_ _184_ _186_] _193_ d_lut_NAND3X1
A_3274_ [_184_ _186_] _194_ d_lut_NAND2X1
A_3275_ [_191_ _194_] _195_ d_lut_NAND2X1
A_3276_ [_193_ _183_ _195_] _196_ d_lut_NAND3X1
A_3277_ [_196_] _197_ d_lut_INVX1
A_3278_ [_195_ _193_ _183_] _198_ d_lut_AOI21X1
A_3279_ [_198_ _197_] _199_ d_lut_NOR2X1
A_3280_ [_182_ _199_] _200_ d_lut_OR2X2
A_3281_ [_199_ _182_] _201_ d_lut_NAND2X1
A_3282_ [_200_ _201_] _3053__17_ d_lut_AND2X2
A_3283_ [_171_ _196_ _198_] _202_ d_lut_AOI21X1
A_3284_ [_202_] _203_ d_lut_INVX1
A_3285_ [_199_ _174_] _204_ d_lut_NAND2X1
A_3286_ [_204_ _177_ _203_] _205_ d_lut_OAI21X1
A_3287_ [_187_ _188_ _193_] _206_ d_lut_OAI21X1
A_3288_ [q1_9_ q1_10_ _168_] _207_ d_lut_NAND3X1
A_3289_ [q1_10_] _208_ d_lut_INVX1
A_3290_ [_208_ _184_] _209_ d_lut_NAND2X1
A_3291_ [q3_2_] _210_ d_lut_INVX1
A_3292_ [q2_10_] _211_ d_lut_INVX1
A_3293_ [_210_ _211_] _212_ d_lut_NAND2X1
A_3294_ [q3_2_ q2_10_] _213_ d_lut_NAND2X1
A_3295_ [_213_ _212_] _214_ d_lut_NAND2X1
A_3296_ [_214_] _215_ d_lut_INVX1
A_3297_ [_207_ _215_ _209_] _216_ d_lut_NAND3X1
A_3298_ [_209_ _207_ _215_] _217_ d_lut_AOI21X1
A_3299_ [_217_] _218_ d_lut_INVX1
A_3300_ [_206_ _216_ _218_] _219_ d_lut_NAND3X1
A_3301_ [_206_] _220_ d_lut_INVX1
A_3302_ [_216_] _221_ d_lut_INVX1
A_3303_ [_217_ _221_ _220_] _222_ d_lut_OAI21X1
A_3304_ [_219_ _222_] _223_ d_lut_AND2X2
A_3305_ [_223_ _205_] _224_ d_lut_NAND2X1
A_3306_ [_205_ _223_] _225_ d_lut_OR2X2
A_3307_ [_225_ _224_] _3053__18_ d_lut_AND2X2
A_3308_ [_219_ _224_] _226_ d_lut_NAND2X1
A_3309_ [_210_ _211_ _216_] _227_ d_lut_OAI21X1
A_3310_ [_152_ _185_ _158_] _228_ d_lut_NOR3X1
A_3311_ [q1_10_ q1_11_ _228_] _229_ d_lut_NAND3X1
A_3312_ [q1_11_] _230_ d_lut_INVX1
A_3313_ [_208_ _184_ _230_] _231_ d_lut_OAI21X1
A_3314_ [q3_3_ q2_11_] _232_ d_lut_NOR2X1
A_3315_ [q3_3_] _233_ d_lut_INVX1
A_3316_ [q2_11_] _234_ d_lut_INVX1
A_3317_ [_233_ _234_] _235_ d_lut_NOR2X1
A_3318_ [_232_ _235_] _236_ d_lut_NOR2X1
A_3319_ [_231_ _236_ _229_] _237_ d_lut_NAND3X1
A_3320_ [_231_ _229_] _238_ d_lut_NAND2X1
A_3321_ [_232_ _235_ _238_] _239_ d_lut_OAI21X1
A_3322_ [_227_ _237_ _239_] _240_ d_lut_NAND3X1
A_3323_ [_216_ _213_] _241_ d_lut_AND2X2
A_3324_ [_236_] _242_ d_lut_INVX1
A_3325_ [_231_ _242_ _229_] _243_ d_lut_NAND3X1
A_3326_ [_236_ _238_] _244_ d_lut_NAND2X1
A_3327_ [_243_ _241_ _244_] _245_ d_lut_NAND3X1
A_3328_ [_245_ _240_] _246_ d_lut_NAND2X1
A_3329_ [_226_ _246_] _247_ d_lut_OR2X2
A_3330_ [_246_ _226_] _248_ d_lut_NAND2X1
A_3331_ [_248_ _247_] _3053__19_ d_lut_NAND2X1
A_3332_ [_222_ _219_] _249_ d_lut_NAND2X1
A_3333_ [_249_ _246_ _204_] _250_ d_lut_NOR3X1
A_3334_ [_240_ _245_] _251_ d_lut_AND2X2
A_3335_ [_202_ _223_ _251_] _252_ d_lut_NAND3X1
A_3336_ [_219_] _253_ d_lut_INVX1
A_3337_ [_253_ _251_] _254_ d_lut_NAND2X1
A_3338_ [_240_ _254_ _252_] _255_ d_lut_NAND3X1
A_3339_ [_180_ _250_ _255_] _256_ d_lut_AOI21X1
A_3340_ [_233_ _234_ _237_] _257_ d_lut_OAI21X1
A_3341_ [_208_ _184_] _258_ d_lut_NOR2X1
A_3342_ [q1_11_ q1_12_ _258_] _259_ d_lut_NAND3X1
A_3343_ [q1_12_] _260_ d_lut_INVX1
A_3344_ [_230_ _207_ _260_] _261_ d_lut_OAI21X1
A_3345_ [q3_4_] _262_ d_lut_INVX1
A_3346_ [q2_12_] _263_ d_lut_INVX1
A_3347_ [_262_ _263_] _264_ d_lut_NAND2X1
A_3348_ [q3_4_ q2_12_] _265_ d_lut_NAND2X1
A_3349_ [_265_ _264_] _266_ d_lut_NAND2X1
A_3350_ [_266_] _267_ d_lut_INVX1
A_3351_ [_261_ _267_ _259_] _268_ d_lut_NAND3X1
A_3352_ [_259_ _261_ _267_] _269_ d_lut_AOI21X1
A_3353_ [_269_] _270_ d_lut_INVX1
A_3354_ [_257_ _268_ _270_] _271_ d_lut_NAND3X1
A_3355_ [_257_] _272_ d_lut_INVX1
A_3356_ [_268_] _273_ d_lut_INVX1
A_3357_ [_269_ _273_ _272_] _274_ d_lut_OAI21X1
A_3358_ [_274_ _271_] _275_ d_lut_NAND2X1
A_3359_ [_275_ _256_] _276_ d_lut_NOR2X1
A_3360_ [_256_ _275_] _277_ d_lut_AND2X2
A_3361_ [_276_ _277_] _3053__20_ d_lut_NOR2X1
A_3362_ [_275_ _256_ _271_] _278_ d_lut_OAI21X1
A_3363_ [_262_ _263_ _268_] _279_ d_lut_OAI21X1
A_3364_ [_230_ _207_] _280_ d_lut_NOR2X1
A_3365_ [q1_12_ q1_13_ _280_] _281_ d_lut_NAND3X1
A_3366_ [q1_13_] _282_ d_lut_INVX1
A_3367_ [_260_ _229_ _282_] _283_ d_lut_OAI21X1
A_3368_ [q3_5_ q2_13_] _284_ d_lut_NOR2X1
A_3369_ [q3_5_] _285_ d_lut_INVX1
A_3370_ [q2_13_] _286_ d_lut_INVX1
A_3371_ [_285_ _286_] _287_ d_lut_NOR2X1
A_3372_ [_284_ _287_] _288_ d_lut_NOR2X1
A_3373_ [_288_ _283_ _281_] _289_ d_lut_NAND3X1
A_3374_ [_260_ _282_ _229_] _290_ d_lut_NOR3X1
A_3375_ [_280_ q1_12_ q1_13_] _291_ d_lut_AOI21X1
A_3376_ [_288_] _292_ d_lut_INVX1
A_3377_ [_291_ _290_ _292_] _293_ d_lut_OAI21X1
A_3378_ [_279_ _289_ _293_] _294_ d_lut_NAND3X1
A_3379_ [_268_ _265_] _295_ d_lut_AND2X2
A_3380_ [_292_ _283_ _281_] _296_ d_lut_NAND3X1
A_3381_ [_291_ _290_ _288_] _297_ d_lut_OAI21X1
A_3382_ [_296_ _297_ _295_] _298_ d_lut_NAND3X1
A_3383_ [_294_ _298_] _299_ d_lut_NAND2X1
A_3384_ [_278_ _299_] _300_ d_lut_OR2X2
A_3385_ [_299_ _278_] _301_ d_lut_NAND2X1
A_3386_ [_301_ _300_] _3053__21_ d_lut_NAND2X1
A_3387_ [_249_ _246_] _302_ d_lut_NOR2X1
A_3388_ [_174_ _199_ _302_] _303_ d_lut_NAND3X1
A_3389_ [_219_ _246_ _240_] _304_ d_lut_OAI21X1
A_3390_ [_302_ _202_ _304_] _305_ d_lut_AOI21X1
A_3391_ [_303_ _177_ _305_] _306_ d_lut_OAI21X1
A_3392_ [_271_ _299_ _294_] _307_ d_lut_OAI21X1
A_3393_ [_275_ _299_] _308_ d_lut_NOR2X1
A_3394_ [_306_ _308_ _307_] _309_ d_lut_AOI21X1
A_3395_ [_285_ _286_ _289_] _310_ d_lut_OAI21X1
A_3396_ [_230_ _260_ _207_] _311_ d_lut_NOR3X1
A_3397_ [q1_13_ q1_14_ _311_] _312_ d_lut_NAND3X1
A_3398_ [q1_14_] _313_ d_lut_INVX1
A_3399_ [_282_ _259_ _313_] _314_ d_lut_OAI21X1
A_3400_ [q3_6_] _315_ d_lut_INVX1
A_3401_ [q2_14_] _316_ d_lut_INVX1
A_3402_ [_315_ _316_] _317_ d_lut_NAND2X1
A_3403_ [q3_6_ q2_14_] _318_ d_lut_NAND2X1
A_3404_ [_318_ _317_] _319_ d_lut_NAND2X1
A_3405_ [_319_] _320_ d_lut_INVX1
A_3406_ [_312_ _320_ _314_] _321_ d_lut_NAND3X1
A_3407_ [_314_ _312_ _320_] _322_ d_lut_AOI21X1
A_3408_ [_322_] _323_ d_lut_INVX1
A_3409_ [_310_ _321_ _323_] _324_ d_lut_NAND3X1
A_3410_ [_310_] _325_ d_lut_INVX1
A_3411_ [_321_] _326_ d_lut_INVX1
A_3412_ [_322_ _326_ _325_] _327_ d_lut_OAI21X1
A_3413_ [_324_ _327_] _328_ d_lut_NAND2X1
A_3414_ [_328_ _309_] _329_ d_lut_NOR2X1
A_3415_ [_309_ _328_] _330_ d_lut_AND2X2
A_3416_ [_329_ _330_] _3053__22_ d_lut_NOR2X1
A_3417_ [_324_] _331_ d_lut_INVX1
A_3418_ [_331_ _329_] _332_ d_lut_NOR2X1
A_3419_ [_315_ _316_ _321_] _333_ d_lut_OAI21X1
A_3420_ [q3_7_] _334_ d_lut_INVX1
A_3421_ [q2_15_] _335_ d_lut_INVX1
A_3422_ [_334_ _335_] _336_ d_lut_NAND2X1
A_3423_ [q3_7_ q2_15_] _337_ d_lut_NAND2X1
A_3424_ [_337_ _336_] _338_ d_lut_NAND2X1
A_3425_ [_338_] _339_ d_lut_INVX1
A_3426_ [q1_15_] _340_ d_lut_INVX1
A_3427_ [_313_ _281_ _340_] _341_ d_lut_OAI21X1
A_3428_ [q1_14_ q1_15_ _290_] _342_ d_lut_NAND3X1
A_3429_ [_339_ _341_ _342_] _343_ d_lut_NAND3X1
A_3430_ [_313_ _281_ q1_15_] _344_ d_lut_OAI21X1
A_3431_ [q1_14_ _340_ _290_] _345_ d_lut_NAND3X1
A_3432_ [_338_ _344_ _345_] _346_ d_lut_NAND3X1
A_3433_ [_343_ _346_ _333_] _347_ d_lut_NAND3X1
A_3434_ [_321_ _318_] _348_ d_lut_AND2X2
A_3435_ [_345_ _344_ _338_] _349_ d_lut_AOI21X1
A_3436_ [_342_ _341_ _339_] _350_ d_lut_AOI21X1
A_3437_ [_349_ _350_ _348_] _351_ d_lut_OAI21X1
A_3438_ [_351_ _347_] _352_ d_lut_AND2X2
A_3439_ [_352_ _332_] _353_ d_lut_NAND2X1
A_3440_ [_347_ _351_] _354_ d_lut_NAND2X1
A_3441_ [_331_ _329_ _354_] _355_ d_lut_OAI21X1
A_3442_ [_355_ _353_] _3053__23_ d_lut_NAND2X1
A_3443_ [_327_ _324_] _356_ d_lut_AND2X2
A_3444_ [_307_ _356_ _352_] _357_ d_lut_NAND3X1
A_3445_ [_331_ _352_] _358_ d_lut_NAND2X1
A_3446_ [_347_ _358_ _357_] _359_ d_lut_NAND3X1
A_3447_ [_308_ _356_ _352_] _360_ d_lut_NAND3X1
A_3448_ [_256_ _360_] _361_ d_lut_NOR2X1
A_3449_ [_334_ _335_ _343_] _362_ d_lut_OAI21X1
A_3450_ [q3_8_ _362_] _363_ d_lut_NAND2X1
A_3451_ [_362_ q3_8_] _364_ d_lut_OR2X2
A_3452_ [_364_ _363_] _365_ d_lut_AND2X2
A_3453_ [_359_ _361_ _365_] _366_ d_lut_OAI21X1
A_3454_ [_328_ _354_] _367_ d_lut_NOR2X1
A_3455_ [_324_ _354_ _347_] _368_ d_lut_OAI21X1
A_3456_ [_367_ _307_ _368_] _369_ d_lut_AOI21X1
A_3457_ [_256_ _360_ _369_] _370_ d_lut_OAI21X1
A_3458_ [_370_ _365_] _371_ d_lut_OR2X2
A_3459_ [_371_ _366_] _3053__24_ d_lut_AND2X2
A_3460_ [q3_9_] _372_ d_lut_INVX1
A_3461_ [_363_ _366_] _373_ d_lut_NAND2X1
A_3462_ [_372_ _373_] _374_ d_lut_NAND2X1
A_3463_ [q3_9_ _363_ _366_] _375_ d_lut_NAND3X1
A_3464_ [_375_ _374_] _3053__25_ d_lut_NAND2X1
A_3465_ [q3_10_] _376_ d_lut_INVX1
A_3466_ [_372_ _376_] _377_ d_lut_NOR2X1
A_3467_ [_377_ _373_] _378_ d_lut_NAND2X1
A_3468_ [_372_ _363_] _379_ d_lut_NOR2X1
A_3469_ [q3_9_ _363_ _364_] _380_ d_lut_NAND3X1
A_3470_ [_380_] _381_ d_lut_INVX1
A_3471_ [_370_ _381_ _379_] _382_ d_lut_AOI21X1
A_3472_ [_376_ _382_] _383_ d_lut_NAND2X1
A_3473_ [_378_ _383_] _3053__26_ d_lut_AND2X2
A_3474_ [_376_ _382_ q3_11_] _384_ d_lut_OAI21X1
A_3475_ [q3_11_] _385_ d_lut_INVX1
A_3476_ [_385_ _377_ _373_] _386_ d_lut_NAND3X1
A_3477_ [_386_ _384_] _3053__27_ d_lut_NAND2X1
A_3478_ [q3_12_] _387_ d_lut_INVX1
A_3479_ [_376_ _385_] _388_ d_lut_NOR2X1
A_3480_ [_388_ _379_] _389_ d_lut_NAND2X1
A_3481_ [_389_] _390_ d_lut_INVX1
A_3482_ [_308_ _367_ _306_] _391_ d_lut_NAND3X1
A_3483_ [q3_9_ _388_ _365_] _392_ d_lut_NAND3X1
A_3484_ [_369_ _391_ _392_] _393_ d_lut_AOI21X1
A_3485_ [_390_ _393_ _387_] _394_ d_lut_OAI21X1
A_3486_ [_388_] _395_ d_lut_INVX1
A_3487_ [_395_ _380_] _396_ d_lut_NOR2X1
A_3488_ [_370_ _396_ _390_] _397_ d_lut_AOI21X1
A_3489_ [q3_12_ _397_] _398_ d_lut_NAND2X1
A_3490_ [_394_ _398_] _3053__28_ d_lut_NAND2X1
A_3491_ [_387_ _397_ q3_13_] _399_ d_lut_OAI21X1
A_3492_ [q3_13_] _400_ d_lut_INVX1
A_3493_ [_359_ _361_ _396_] _401_ d_lut_OAI21X1
A_3494_ [_389_ _401_] _402_ d_lut_NAND2X1
A_3495_ [q3_12_ _400_ _402_] _403_ d_lut_NAND3X1
A_3496_ [_403_ _399_] _3053__29_ d_lut_NAND2X1
A_3497_ [q3_14_] _404_ d_lut_INVX1
A_3498_ [_387_ _400_] _405_ d_lut_NOR2X1
A_3499_ [_405_] _406_ d_lut_INVX1
A_3500_ [_401_ _389_ _406_] _407_ d_lut_AOI21X1
A_3501_ [_404_ _407_] _408_ d_lut_NAND2X1
A_3502_ [_406_ _397_ q3_14_] _409_ d_lut_OAI21X1
A_3503_ [_409_ _408_] _3053__30_ d_lut_NAND2X1
A_3504_ [_390_ _393_ _405_] _410_ d_lut_OAI21X1
A_3505_ [_404_ _410_ q3_15_] _411_ d_lut_OAI21X1
A_3506_ [q3_15_] _412_ d_lut_INVX1
A_3507_ [q3_14_ _412_ _407_] _413_ d_lut_NAND3X1
A_3508_ [_413_ _411_] _3053__31_ d_lut_NAND2X1
A_3509_ [_429_ _428_ _420_] _414_ d_lut_AOI21X1
A_3510_ [_414_ _431_] _3053__9_ d_lut_NOR2X1
A_3511_ [\z1.q1\_0_ \z1.q0\_4_] _575_ d_lut_OR2X2
A_3512_ [\z1.q1\_0_ \z1.q0\_4_] _576_ d_lut_NAND2X1
A_3513_ [_576_ _575_] _577_ d_lut_NAND2X1
A_3514_ [_577_] _578_ d_lut_INVX1
A_3515_ [_578_ \z1.q2\_0_] _579_ d_lut_AND2X2
A_3516_ [\z1.q2\_0_ _578_] _580_ d_lut_NOR2X1
A_3517_ [_580_ _579_] q0_4_ d_lut_NOR2X1
A_3518_ [\z1.z3.z1.z1.s\] _581_ d_lut_INVX1
A_3519_ [_576_] _582_ d_lut_INVX1
A_3520_ [\z1.z2.z1.z1.s\ \z1.q0\_5_] _583_ d_lut_NAND2X1
A_3521_ [\z1.z2.z1.z1.s\ \z1.q0\_5_] _584_ d_lut_OR2X2
A_3522_ [_583_ _584_ _582_] _585_ d_lut_NAND3X1
A_3523_ [\z1.z2.z1.z1.s\ \z1.q0\_5_] _586_ d_lut_AND2X2
A_3524_ [\z1.z2.z1.z1.s\ \z1.q0\_5_] _587_ d_lut_NOR2X1
A_3525_ [_587_ _586_ _576_] _588_ d_lut_OAI21X1
A_3526_ [_588_ _585_] _589_ d_lut_NAND2X1
A_3527_ [_589_ _581_] _590_ d_lut_OR2X2
A_3528_ [_581_ _589_] _591_ d_lut_NAND2X1
A_3529_ [_590_ _591_] _592_ d_lut_AND2X2
A_3530_ [_579_ _592_] _593_ d_lut_NAND2X1
A_3531_ [_590_] _594_ d_lut_INVX1
A_3532_ [_576_ _587_ _583_] _595_ d_lut_OAI21X1
A_3533_ [\z1.q0\_6_] _596_ d_lut_INVX1
A_3534_ [\z1.q1\_2_ _596_] _597_ d_lut_NOR2X1
A_3535_ [\z1.q1\_2_] _598_ d_lut_INVX1
A_3536_ [\z1.q0\_6_ _598_] _599_ d_lut_NOR2X1
A_3537_ [_597_ _599_ _595_] _600_ d_lut_OAI21X1
A_3538_ [\z1.q0\_6_ _598_] _601_ d_lut_NAND2X1
A_3539_ [\z1.q1\_2_ _596_] _602_ d_lut_NAND2X1
A_3540_ [_601_ _602_] _603_ d_lut_NAND2X1
A_3541_ [_603_ _595_] _604_ d_lut_OR2X2
A_3542_ [\z1.q2\_2_ _600_ _604_] _605_ d_lut_NAND3X1
A_3543_ [\z1.q2\_2_] _606_ d_lut_INVX1
A_3544_ [_600_ _604_] _607_ d_lut_NAND2X1
A_3545_ [_606_ _607_] _608_ d_lut_NAND2X1
A_3546_ [_608_ _605_ _594_] _609_ d_lut_AOI21X1
A_3547_ [_609_] _610_ d_lut_INVX1
A_3548_ [_605_ _608_ _594_] _611_ d_lut_NAND3X1
A_3549_ [_593_ _611_ _610_] _612_ d_lut_NAND3X1
A_3550_ [_593_] _613_ d_lut_INVX1
A_3551_ [_611_] _614_ d_lut_INVX1
A_3552_ [_609_ _614_ _613_] _615_ d_lut_OAI21X1
A_3553_ [_612_ _615_] q0_6_ d_lut_NAND2X1
A_3554_ [_609_ _593_ _611_] _616_ d_lut_OAI21X1
A_3555_ [_605_] _617_ d_lut_INVX1
A_3556_ [\z1.q2\_3_] _618_ d_lut_INVX1
A_3557_ [\z1.q0\_7_] _619_ d_lut_INVX1
A_3558_ [\z1.q1\_3_ _619_] _620_ d_lut_NOR2X1
A_3559_ [\z1.q1\_3_] _621_ d_lut_INVX1
A_3560_ [\z1.q0\_7_ _621_] _622_ d_lut_NOR2X1
A_3561_ [\z1.q1\_2_ \z1.q0\_6_] _623_ d_lut_NAND2X1
A_3562_ [_623_] _624_ d_lut_INVX1
A_3563_ [_603_ _595_ _624_] _625_ d_lut_AOI21X1
A_3564_ [_620_ _622_ _625_] _626_ d_lut_OAI21X1
A_3565_ [\z1.q1\_3_ \z1.q0\_7_] _627_ d_lut_NAND2X1
A_3566_ [_627_] _628_ d_lut_INVX1
A_3567_ [\z1.q1\_3_ \z1.q0\_7_] _629_ d_lut_NOR2X1
A_3568_ [_625_] _630_ d_lut_INVX1
A_3569_ [_628_ _629_ _630_] _631_ d_lut_OAI21X1
A_3570_ [_631_ _626_ _618_] _433_ d_lut_AOI21X1
A_3571_ [_433_] _434_ d_lut_INVX1
A_3572_ [_618_ _626_ _631_] _435_ d_lut_NAND3X1
A_3573_ [_434_ _435_ _617_] _436_ d_lut_AOI21X1
A_3574_ [_617_ _435_ _434_] _437_ d_lut_NAND3X1
A_3575_ [_437_] _438_ d_lut_INVX1
A_3576_ [_436_ _438_ _616_] _439_ d_lut_OAI21X1
A_3577_ [_616_] _440_ d_lut_INVX1
A_3578_ [_435_ _434_] _441_ d_lut_NAND2X1
A_3579_ [_606_ _607_ _441_] _442_ d_lut_OAI21X1
A_3580_ [_437_ _440_ _442_] _443_ d_lut_NAND3X1
A_3581_ [_443_ _439_] q0_7_ d_lut_NAND2X1
A_3582_ [_442_ _616_ _438_] _444_ d_lut_AOI21X1
A_3583_ [_582_ _584_ _586_] _445_ d_lut_AOI21X1
A_3584_ [_597_ _599_ _620_ _622_] _446_ d_lut_OAI22X1
A_3585_ [_623_ _629_ _627_] _447_ d_lut_OAI21X1
A_3586_ [_447_] _448_ d_lut_INVX1
A_3587_ [_445_ _446_ _448_] _449_ d_lut_OAI21X1
A_3588_ [\z1.q1\_4_ _449_] _450_ d_lut_NAND2X1
A_3589_ [\z1.q1\_4_] _451_ d_lut_INVX1
A_3590_ [\z1.q0\_7_ _621_] _452_ d_lut_NAND2X1
A_3591_ [\z1.q1\_3_ _619_] _453_ d_lut_NAND2X1
A_3592_ [_452_ _453_] _454_ d_lut_NAND2X1
A_3593_ [_595_ _603_ _454_] _455_ d_lut_NAND3X1
A_3594_ [_451_ _448_ _455_] _456_ d_lut_NAND3X1
A_3595_ [\z1.q3\_0_ \z1.q2\_4_] _457_ d_lut_NAND2X1
A_3596_ [\z1.q3\_0_] _458_ d_lut_INVX1
A_3597_ [\z1.q2\_4_] _459_ d_lut_INVX1
A_3598_ [_458_ _459_] _460_ d_lut_NAND2X1
A_3599_ [_457_ _460_] _461_ d_lut_NAND2X1
A_3600_ [_461_] _462_ d_lut_INVX1
A_3601_ [_456_ _462_ _450_] _463_ d_lut_NAND3X1
A_3602_ [_455_ _448_ _451_] _464_ d_lut_AOI21X1
A_3603_ [_456_] _465_ d_lut_INVX1
A_3604_ [_464_ _465_ _461_] _466_ d_lut_OAI21X1
A_3605_ [_463_ _466_ _433_] _467_ d_lut_NAND3X1
A_3606_ [_463_ _466_] _468_ d_lut_NAND2X1
A_3607_ [_468_ _434_] _469_ d_lut_NAND2X1
A_3608_ [_469_ _467_] _470_ d_lut_AND2X2
A_3609_ [_470_ _444_] _471_ d_lut_NAND2X1
A_3610_ [_436_ _440_ _437_] _472_ d_lut_OAI21X1
A_3611_ [_467_ _469_] _473_ d_lut_NAND2X1
A_3612_ [_473_ _472_] _474_ d_lut_NAND2X1
A_3613_ [_471_ _474_] q0_8_ d_lut_NAND2X1
A_3614_ [_473_ _444_ _467_] _475_ d_lut_OAI21X1
A_3615_ [_458_ _459_ _463_] _476_ d_lut_OAI21X1
A_3616_ [\z1.q1\_4_ \z1.q1\_5_ _449_] _477_ d_lut_NAND3X1
A_3617_ [\z1.q1\_5_] _478_ d_lut_INVX1
A_3618_ [_601_ _602_ _452_ _453_] _479_ d_lut_AOI22X1
A_3619_ [_479_ _595_ _447_] _480_ d_lut_AOI21X1
A_3620_ [_451_ _480_ _478_] _481_ d_lut_OAI21X1
A_3621_ [\z1.z4.z1.z1.s\] _482_ d_lut_INVX1
A_3622_ [\z1.q2\_5_] _483_ d_lut_INVX1
A_3623_ [_482_ _483_] _484_ d_lut_NAND2X1
A_3624_ [\z1.z4.z1.z1.s\ \z1.q2\_5_] _485_ d_lut_NAND2X1
A_3625_ [_484_ _485_] _486_ d_lut_AND2X2
A_3626_ [_486_ _481_ _477_] _487_ d_lut_NAND3X1
A_3627_ [_477_ _481_ _486_] _488_ d_lut_AOI21X1
A_3628_ [_488_] _489_ d_lut_INVX1
A_3629_ [_487_ _476_ _489_] _490_ d_lut_NAND3X1
A_3630_ [_463_ _457_] _491_ d_lut_AND2X2
A_3631_ [_487_] _492_ d_lut_INVX1
A_3632_ [_492_ _488_ _491_] _493_ d_lut_OAI21X1
A_3633_ [_490_ _493_] _494_ d_lut_NAND2X1
A_3634_ [_475_ _494_] _495_ d_lut_OR2X2
A_3635_ [_494_ _475_] _496_ d_lut_NAND2X1
A_3636_ [_496_ _495_] q0_9_ d_lut_NAND2X1
A_3637_ [_490_ _493_ _470_] _497_ d_lut_NAND3X1
A_3638_ [_434_ _468_ _490_] _498_ d_lut_OAI21X1
A_3639_ [_493_ _498_] _499_ d_lut_NAND2X1
A_3640_ [_444_ _497_ _499_] _500_ d_lut_OAI21X1
A_3641_ [_482_ _483_ _487_] _501_ d_lut_OAI21X1
A_3642_ [\z1.q1\_5_ \z1.q1\_6_ _464_] _502_ d_lut_NAND3X1
A_3643_ [\z1.q1\_6_] _503_ d_lut_INVX1
A_3644_ [_503_ _477_] _504_ d_lut_NAND2X1
A_3645_ [\z1.q3\_2_] _505_ d_lut_INVX1
A_3646_ [\z1.q2\_6_] _506_ d_lut_INVX1
A_3647_ [_505_ _506_] _507_ d_lut_NAND2X1
A_3648_ [\z1.q3\_2_ \z1.q2\_6_] _508_ d_lut_NAND2X1
A_3649_ [_508_ _507_] _509_ d_lut_NAND2X1
A_3650_ [_509_] _510_ d_lut_INVX1
A_3651_ [_502_ _510_ _504_] _511_ d_lut_NAND3X1
A_3652_ [_504_ _502_ _510_] _512_ d_lut_AOI21X1
A_3653_ [_512_] _513_ d_lut_INVX1
A_3654_ [_501_ _511_ _513_] _514_ d_lut_NAND3X1
A_3655_ [_501_] _515_ d_lut_INVX1
A_3656_ [_511_] _516_ d_lut_INVX1
A_3657_ [_512_ _516_ _515_] _517_ d_lut_OAI21X1
A_3658_ [_517_ _514_] _518_ d_lut_NAND2X1
A_3659_ [_518_ _500_] _519_ d_lut_NAND2X1
A_3660_ [_473_ _494_] _520_ d_lut_NOR2X1
A_3661_ [_493_ _498_ _520_ _472_] _521_ d_lut_AOI22X1
A_3662_ [_514_ _517_] _522_ d_lut_AND2X2
A_3663_ [_522_ _521_] _523_ d_lut_NAND2X1
A_3664_ [_519_ _523_] q0_10_ d_lut_NAND2X1
A_3665_ [_518_ _521_ _514_] _524_ d_lut_OAI21X1
A_3666_ [_505_ _506_ _511_] _525_ d_lut_OAI21X1
A_3667_ [\z1.q3\_3_ \z1.q2\_7_] _526_ d_lut_NOR2X1
A_3668_ [\z1.q3\_3_] _527_ d_lut_INVX1
A_3669_ [\z1.q2\_7_] _528_ d_lut_INVX1
A_3670_ [_527_ _528_] _529_ d_lut_NOR2X1
A_3671_ [_526_ _529_] _530_ d_lut_NOR2X1
A_3672_ [\z1.q1\_7_] _531_ d_lut_INVX1
A_3673_ [_503_ _477_ _531_] _532_ d_lut_OAI21X1
A_3674_ [_464_ \z1.q1\_5_] _533_ d_lut_AND2X2
A_3675_ [\z1.q1\_6_ \z1.q1\_7_ _533_] _534_ d_lut_NAND3X1
A_3676_ [_530_ _532_ _534_] _535_ d_lut_NAND3X1
A_3677_ [_530_] _536_ d_lut_INVX1
A_3678_ [_503_ _477_ \z1.q1\_7_] _537_ d_lut_OAI21X1
A_3679_ [\z1.q1\_6_ _531_ _533_] _538_ d_lut_NAND3X1
A_3680_ [_536_ _537_ _538_] _539_ d_lut_NAND3X1
A_3681_ [_535_ _539_ _525_] _540_ d_lut_NAND3X1
A_3682_ [_511_ _508_] _541_ d_lut_AND2X2
A_3683_ [_535_ _539_] _542_ d_lut_NAND2X1
A_3684_ [_541_ _542_] _543_ d_lut_NAND2X1
A_3685_ [_540_ _543_] _544_ d_lut_NAND2X1
A_3686_ [_524_ _544_] _545_ d_lut_OR2X2
A_3687_ [_544_ _524_] _546_ d_lut_NAND2X1
A_3688_ [_546_ _545_] q0_11_ d_lut_NAND2X1
A_3689_ [_541_ _542_ _514_] _547_ d_lut_OAI21X1
A_3690_ [_543_ _547_] _548_ d_lut_NAND2X1
A_3691_ [_540_ _543_ _522_] _549_ d_lut_NAND3X1
A_3692_ [_549_ _521_ _548_] _550_ d_lut_OAI21X1
A_3693_ [_527_ _528_ _535_] _551_ d_lut_OAI21X1
A_3694_ [\z1.q3\_4_ _551_] _552_ d_lut_NAND2X1
A_3695_ [_551_ \z1.q3\_4_] _553_ d_lut_OR2X2
A_3696_ [_552_ _553_ _550_] _554_ d_lut_NAND3X1
A_3697_ [_518_ _544_] _555_ d_lut_NOR2X1
A_3698_ [_543_ _547_ _555_ _500_] _556_ d_lut_AOI22X1
A_3699_ [_552_ _553_] _557_ d_lut_NAND2X1
A_3700_ [_557_ _556_] _558_ d_lut_NAND2X1
A_3701_ [_554_ _558_] q0_12_ d_lut_AND2X2
A_3702_ [\z1.q3\_5_] _559_ d_lut_INVX1
A_3703_ [_557_ _556_ _552_] _560_ d_lut_OAI21X1
A_3704_ [_559_ _560_] _561_ d_lut_NAND2X1
A_3705_ [\z1.q3\_5_ _552_ _554_] _562_ d_lut_NAND3X1
A_3706_ [_562_ _561_] q0_13_ d_lut_NAND2X1
A_3707_ [\z1.q3\_6_] _563_ d_lut_INVX1
A_3708_ [\z1.q3\_5_ _552_ _553_] _564_ d_lut_NAND3X1
A_3709_ [_559_ _552_ _564_ _556_] _565_ d_lut_OAI22X1
A_3710_ [_563_ _565_] _566_ d_lut_NAND2X1
A_3711_ [_552_] _567_ d_lut_INVX1
A_3712_ [_564_] _568_ d_lut_INVX1
A_3713_ [\z1.q3\_5_ _567_ _550_ _568_] _569_ d_lut_AOI22X1
A_3714_ [\z1.q3\_6_ _569_] _570_ d_lut_NAND2X1
A_3715_ [_570_ _566_] q0_14_ d_lut_NAND2X1
A_3716_ [_563_ _569_ \z1.q3\_7_] _571_ d_lut_OAI21X1
A_3717_ [\z1.q3\_7_] _572_ d_lut_INVX1
A_3718_ [\z1.q3\_6_ _572_ _565_] _573_ d_lut_NAND3X1
A_3719_ [_573_ _571_] q0_15_ d_lut_NAND2X1
A_3720_ [_579_ _592_] _574_ d_lut_NOR2X1
A_3721_ [_574_ _613_] q0_5_ d_lut_NOR2X1
A_3722_ [\z1.z1.q1\_0_ \z1.z1.z1.z2.s\] _639_ d_lut_NOR2X1
A_3723_ [\z1.z1.q1\_0_ \z1.z1.z1.z2.s\] _640_ d_lut_AND2X2
A_3724_ [_639_ _640_] _641_ d_lut_NOR2X1
A_3725_ [\z1.z1.q2\_0_ _641_] _642_ d_lut_NAND2X1
A_3726_ [_642_] _643_ d_lut_INVX1
A_3727_ [\z1.z1.q2\_0_ _641_] _644_ d_lut_NOR2X1
A_3728_ [_644_ _643_] q0_2_ d_lut_NOR2X1
A_3729_ [\z1.z1.q1\_0_ \z1.z1.z1.z2.s\] _645_ d_lut_NAND2X1
A_3730_ [\z1.z1.z2.z1.s\ \z1.z1.z1.z2.c\] _646_ d_lut_NOR2X1