*SPICE netlist created from verilog structural netlist module array16 by vlog2Spice (qflow)
*This file may contain array delimiters, not for use in simulation.


.subckt array16 VDD GND a[0] a[1] a[2] a[3] a[4]
+ a[5] a[6] a[7] a[8] a[9] a[10] a[11] a[12]
+ a[13] a[14] a[15] b[0] b[1] b[2] b[3] b[4]
+ b[5] b[6] b[7] b[8] b[9] b[10] b[11] b[12]
+ b[13] b[14] b[15] c[0] c[1] c[2] c[3] c[4]
+ c[5] c[6] c[7] c[8] c[9] c[10] c[11] c[12]
+ c[13] c[14] c[15] c[16] c[17] c[18] c[19] c[20]
+ c[21] c[22] c[23] c[24] c[25] c[26] c[27] c[28]
+ c[29] c[30] c[31] 

X_3054_ GND VDD q1[0] q0[8] _415_ NOR2X1
X_3055_ GND VDD q1[0] q0[8] _416_ NAND2X1
X_3056_ GND VDD _416_ _417_ INVX1
X_3057_ GND VDD _417_ _415_ _418_ OR2X2
X_3058_ GND VDD _418_ _419_ INVX1
X_3059_ GND VDD _419_ q2[0] _420_ AND2X2
X_3060_ GND VDD q2[0] _419_ _421_ NOR2X1
X_3061_ GND VDD _421_ _420_ _3053_[8] NOR2X1
X_3062_ GND VDD \z2.z1.z1.z1.s\ q0[9] _422_ NAND2X1
X_3063_ GND VDD \z2.z1.z1.z1.s\ q0[9] _423_ OR2X2
X_3064_ GND VDD _422_ _423_ _424_ NAND2X1
X_3065_ GND VDD _416_ _424_ _425_ NOR2X1
X_3066_ GND VDD _422_ _423_ _417_ _426_ AOI21X1
X_3067_ GND VDD _426_ _425_ _427_ NOR2X1
X_3068_ GND VDD \z3.z1.z1.z1.s\ _427_ _428_ NAND2X1
X_3069_ GND VDD _427_ \z3.z1.z1.z1.s\ _429_ OR2X2
X_3070_ GND VDD _420_ _428_ _429_ _430_ NAND3X1
X_3071_ GND VDD _430_ _431_ INVX1
X_3072_ GND VDD _428_ _432_ INVX1
X_3073_ GND VDD \z2.z1.z1.z1.s\ q0[9] _0_ NOR2X1
X_3074_ GND VDD _416_ _0_ _422_ _1_ OAI21X1
X_3075_ GND VDD q1[2] q0[10] _2_ NOR2X1
X_3076_ GND VDD q1[2] q0[10] _3_ AND2X2
X_3077_ GND VDD _2_ _3_ _4_ NOR2X1
X_3078_ GND VDD _1_ _4_ _5_ NAND2X1
X_3079_ GND VDD _4_ _1_ _6_ OR2X2
X_3080_ GND VDD q2[2] _5_ _6_ _7_ NAND3X1
X_3081_ GND VDD q2[2] _8_ INVX1
X_3082_ GND VDD _5_ _6_ _9_ NAND2X1
X_3083_ GND VDD _8_ _9_ _10_ NAND2X1
X_3084_ GND VDD _7_ _10_ _432_ _11_ AOI21X1
X_3085_ GND VDD _7_ _10_ _432_ _12_ NAND3X1
X_3086_ GND VDD _12_ _13_ INVX1
X_3087_ GND VDD _11_ _13_ _14_ NOR2X1
X_3088_ GND VDD _431_ _14_ _15_ NAND2X1
X_3089_ GND VDD _15_ _16_ INVX1
X_3090_ GND VDD _431_ _14_ _17_ NOR2X1
X_3091_ GND VDD _17_ _16_ _3053_[10] NOR2X1
X_3092_ GND VDD q1[2] q0[10] _18_ NAND2X1
X_3093_ GND VDD q1[3] _19_ INVX1
X_3094_ GND VDD q0[11] _19_ _20_ NAND2X1
X_3095_ GND VDD q0[11] _21_ INVX1
X_3096_ GND VDD q1[3] _21_ _22_ NAND2X1
X_3097_ GND VDD _20_ _22_ _23_ NAND2X1
X_3098_ GND VDD _18_ _23_ _5_ _24_ NAND3X1
X_3099_ GND VDD _18_ _5_ _25_ NAND2X1
X_3100_ GND VDD _20_ _22_ _25_ _26_ NAND3X1
X_3101_ GND VDD _24_ _26_ _27_ NAND2X1
X_3102_ GND VDD q2[3] _27_ _28_ NAND2X1
X_3103_ GND VDD q2[3] _29_ INVX1
X_3104_ GND VDD _29_ _24_ _26_ _30_ NAND3X1
X_3105_ GND VDD _30_ _28_ _31_ NAND2X1
X_3106_ GND VDD _8_ _9_ _31_ _32_ OAI21X1
X_3107_ GND VDD _7_ _33_ INVX1
X_3108_ GND VDD _33_ _30_ _28_ _34_ NAND3X1
X_3109_ GND VDD _34_ _32_ _35_ NAND2X1
X_3110_ GND VDD _13_ _16_ _35_ _36_ OAI21X1
X_3111_ GND VDD _430_ _11_ _12_ _37_ OAI21X1
X_3112_ GND VDD _35_ _37_ _38_ OR2X2
X_3113_ GND VDD _38_ _36_ _3053_[11] NAND2X1
X_3114_ GND VDD _34_ _39_ INVX1
X_3115_ GND VDD _37_ _32_ _39_ _40_ AOI21X1
X_3116_ GND VDD _28_ _41_ INVX1
X_3117_ GND VDD q2[4] _42_ INVX1
X_3118_ GND VDD _1_ _23_ _4_ _43_ NAND3X1
X_3119_ GND VDD _19_ _21_ _18_ _44_ AOI21X1
X_3120_ GND VDD q1[3] q0[11] _44_ _45_ AOI21X1
X_3121_ GND VDD q1[4] _46_ INVX1
X_3122_ GND VDD q0[12] _47_ INVX1
X_3123_ GND VDD _46_ _47_ _48_ NAND2X1
X_3124_ GND VDD q1[4] q0[12] _49_ NAND2X1
X_3125_ GND VDD _49_ _48_ _50_ NAND2X1
X_3126_ GND VDD _43_ _45_ _50_ _51_ AOI21X1
X_3127_ GND VDD _51_ _52_ INVX1
X_3128_ GND VDD _43_ _45_ _53_ AND2X2
X_3129_ GND VDD q1[4] q0[12] _54_ NOR2X1
X_3130_ GND VDD q1[4] q0[12] _55_ AND2X2
X_3131_ GND VDD _54_ _55_ _53_ _56_ OAI21X1
X_3132_ GND VDD _52_ _56_ _57_ NAND2X1
X_3133_ GND VDD _57_ _42_ _58_ OR2X2
X_3134_ GND VDD _56_ _52_ q2[4] _59_ AOI21X1
X_3135_ GND VDD _59_ _60_ INVX1
X_3136_ GND VDD _41_ _60_ _58_ _61_ NAND3X1
X_3137_ GND VDD _42_ _57_ _62_ NOR2X1
X_3138_ GND VDD _59_ _62_ _28_ _63_ OAI21X1
X_3139_ GND VDD _63_ _61_ _64_ NAND2X1
X_3140_ GND VDD _64_ _40_ _65_ NOR2X1
X_3141_ GND VDD _40_ _64_ _66_ AND2X2
X_3142_ GND VDD _65_ _66_ _3053_[12] NOR2X1
X_3143_ GND VDD _64_ _40_ _61_ _67_ OAI21X1
X_3144_ GND VDD q2[5] _68_ INVX1
X_3145_ GND VDD q1[5] q0[13] _69_ NAND2X1
X_3146_ GND VDD q1[5] _70_ INVX1
X_3147_ GND VDD q0[13] _71_ INVX1
X_3148_ GND VDD _70_ _71_ _72_ NAND2X1
X_3149_ GND VDD _69_ _72_ _73_ NAND2X1
X_3150_ GND VDD _46_ _47_ _73_ _74_ OAI21X1
X_3151_ GND VDD q0[13] _70_ _75_ NAND2X1
X_3152_ GND VDD q1[5] _71_ _76_ NAND2X1
X_3153_ GND VDD _75_ _76_ _77_ NAND2X1
X_3154_ GND VDD _55_ _51_ _77_ _78_ OAI21X1
X_3155_ GND VDD _51_ _74_ _78_ _79_ OAI21X1
X_3156_ GND VDD _68_ _79_ _80_ NOR2X1
X_3157_ GND VDD _79_ _68_ _81_ AND2X2
X_3158_ GND VDD _80_ _81_ _58_ _82_ OAI21X1
X_3159_ GND VDD _79_ _68_ _83_ OR2X2
X_3160_ GND VDD _68_ _79_ _84_ NAND2X1
X_3161_ GND VDD _62_ _84_ _83_ _85_ NAND3X1
X_3162_ GND VDD _82_ _85_ _86_ NAND2X1
X_3163_ GND VDD _86_ _67_ _87_ NAND2X1
X_3164_ GND VDD _67_ _86_ _88_ OR2X2
X_3165_ GND VDD _87_ _88_ _3053_[13] NAND2X1
X_3166_ GND VDD _64_ _40_ _86_ _89_ NOR3X1
X_3167_ GND VDD _61_ _86_ _85_ _90_ OAI21X1
X_3168_ GND VDD _54_ _55_ _91_ NOR2X1
X_3169_ GND VDD _77_ _91_ _92_ NAND2X1
X_3170_ GND VDD _43_ _45_ _92_ _93_ AOI21X1
X_3171_ GND VDD q1[5] q0[13] _94_ NOR2X1
X_3172_ GND VDD _49_ _94_ _69_ _95_ OAI21X1
X_3173_ GND VDD q1[6] q0[14] _96_ NOR2X1
X_3174_ GND VDD q1[6] q0[14] _97_ AND2X2
X_3175_ GND VDD _96_ _97_ _98_ NOR2X1
X_3176_ GND VDD _95_ _93_ _98_ _99_ OAI21X1
X_3177_ GND VDD q1[6] _100_ INVX1
X_3178_ GND VDD q0[14] _101_ INVX1
X_3179_ GND VDD _100_ _101_ _102_ NAND2X1
X_3180_ GND VDD q1[6] q0[14] _103_ NAND2X1
X_3181_ GND VDD _103_ _102_ _104_ NAND2X1
X_3182_ GND VDD _69_ _104_ _78_ _105_ NAND3X1
X_3183_ GND VDD q2[6] _99_ _105_ _106_ NAND3X1
X_3184_ GND VDD q2[6] _107_ INVX1
X_3185_ GND VDD _99_ _105_ _108_ NAND2X1
X_3186_ GND VDD _107_ _108_ _109_ NAND2X1
X_3187_ GND VDD _106_ _109_ _110_ NAND2X1
X_3188_ GND VDD _110_ _83_ _111_ OR2X2
X_3189_ GND VDD _68_ _79_ _110_ _112_ OAI21X1
X_3190_ GND VDD _111_ _112_ _113_ AND2X2
X_3191_ GND VDD _90_ _89_ _113_ _114_ OAI21X1
X_3192_ GND VDD _85_ _115_ INVX1
X_3193_ GND VDD _67_ _82_ _115_ _116_ AOI21X1
X_3194_ GND VDD _112_ _111_ _117_ NAND2X1
X_3195_ GND VDD _117_ _116_ _118_ NAND2X1
X_3196_ GND VDD _118_ _114_ _3053_[14] AND2X2
X_3197_ GND VDD _117_ _116_ _111_ _119_ OAI21X1
X_3198_ GND VDD _100_ _101_ _99_ _120_ OAI21X1
X_3199_ GND VDD q1[7] _121_ INVX1
X_3200_ GND VDD q0[15] _121_ _122_ NAND2X1
X_3201_ GND VDD q0[15] _123_ INVX1
X_3202_ GND VDD q1[7] _123_ _124_ NAND2X1
X_3203_ GND VDD _122_ _124_ _125_ NAND2X1
X_3204_ GND VDD _125_ _120_ _126_ NAND2X1
X_3205_ GND VDD _120_ _125_ _127_ OR2X2
X_3206_ GND VDD q2[7] _126_ _127_ _128_ NAND3X1
X_3207_ GND VDD q2[7] _129_ INVX1
X_3208_ GND VDD q1[7] q0[15] _130_ NAND2X1
X_3209_ GND VDD _121_ _123_ _131_ NAND2X1
X_3210_ GND VDD _130_ _131_ _132_ NAND2X1
X_3211_ GND VDD _132_ _120_ _133_ NAND2X1
X_3212_ GND VDD _120_ _132_ _134_ OR2X2
X_3213_ GND VDD _129_ _133_ _134_ _135_ NAND3X1
X_3214_ GND VDD _128_ _135_ _136_ NAND2X1
X_3215_ GND VDD _107_ _108_ _136_ _137_ OAI21X1
X_3216_ GND VDD _106_ _138_ INVX1
X_3217_ GND VDD _138_ _128_ _135_ _139_ NAND3X1
X_3218_ GND VDD _139_ _137_ _140_ NAND2X1
X_3219_ GND VDD _119_ _140_ _141_ OR2X2
X_3220_ GND VDD _140_ _119_ _142_ NAND2X1
X_3221_ GND VDD _142_ _141_ _3053_[15] NAND2X1
X_3222_ GND VDD _134_ _133_ _129_ _143_ AOI21X1
X_3223_ GND VDD _50_ _73_ _144_ NOR2X1
X_3224_ GND VDD _104_ _132_ _145_ NOR2X1
X_3225_ GND VDD _144_ _145_ _146_ NAND2X1
X_3226_ GND VDD q1[7] q0[15] _97_ _147_ OAI21X1
X_3227_ GND VDD _121_ _123_ _147_ _148_ OAI21X1
X_3228_ GND VDD _145_ _95_ _148_ _149_ AOI21X1
X_3229_ GND VDD _146_ _53_ _149_ _150_ OAI21X1
X_3230_ GND VDD q1[8] _150_ _151_ NAND2X1
X_3231_ GND VDD q1[8] _152_ INVX1
X_3232_ GND VDD _45_ _43_ _153_ NAND2X1
X_3233_ GND VDD _125_ _98_ _154_ NAND2X1
X_3234_ GND VDD _92_ _154_ _155_ NOR2X1
X_3235_ GND VDD _95_ _125_ _98_ _156_ NAND3X1
X_3236_ GND VDD _130_ _147_ _156_ _157_ NAND3X1
X_3237_ GND VDD _155_ _153_ _157_ _158_ AOI21X1
X_3238_ GND VDD _152_ _158_ _159_ NAND2X1
X_3239_ GND VDD q3[0] q2[8] _160_ NAND2X1
X_3240_ GND VDD q3[0] _161_ INVX1
X_3241_ GND VDD q2[8] _162_ INVX1
X_3242_ GND VDD _161_ _162_ _163_ NAND2X1
X_3243_ GND VDD _160_ _163_ _164_ NAND2X1
X_3244_ GND VDD _164_ _165_ INVX1
X_3245_ GND VDD _165_ _159_ _151_ _166_ NAND3X1
X_3246_ GND VDD _144_ _145_ _153_ _167_ NAND3X1
X_3247_ GND VDD _167_ _149_ _152_ _168_ AOI21X1
X_3248_ GND VDD _159_ _169_ INVX1
X_3249_ GND VDD _168_ _169_ _164_ _170_ OAI21X1
X_3250_ GND VDD _166_ _170_ _143_ _171_ NAND3X1
X_3251_ GND VDD _166_ _170_ _172_ NAND2X1
X_3252_ GND VDD _128_ _172_ _173_ NAND2X1
X_3253_ GND VDD _171_ _173_ _174_ AND2X2
X_3254_ GND VDD _111_ _139_ _175_ AND2X2
X_3255_ GND VDD _117_ _116_ _175_ _176_ OAI21X1
X_3256_ GND VDD _137_ _176_ _177_ NAND2X1
X_3257_ GND VDD _174_ _177_ _178_ NAND2X1
X_3258_ GND VDD _174_ _179_ INVX1
X_3259_ GND VDD _106_ _136_ _114_ _175_ 
+ _180_
+ AOI22X1
X_3260_ GND VDD _179_ _180_ _181_ NAND2X1
X_3261_ GND VDD _181_ _178_ _3053_[16] NAND2X1
X_3262_ GND VDD _179_ _177_ _171_ _182_ OAI21X1
X_3263_ GND VDD _161_ _162_ _166_ _183_ OAI21X1
X_3264_ GND VDD q1[8] q1[9] _150_ _184_ NAND3X1
X_3265_ GND VDD q1[9] _185_ INVX1
X_3266_ GND VDD _152_ _158_ _185_ _186_ OAI21X1
X_3267_ GND VDD \z4.z1.z1.z1.s\ _187_ INVX1
X_3268_ GND VDD q2[9] _188_ INVX1
X_3269_ GND VDD _187_ _188_ _189_ NAND2X1
X_3270_ GND VDD \z4.z1.z1.z1.s\ q2[9] _190_ NAND2X1
X_3271_ GND VDD _190_ _189_ _191_ NAND2X1
X_3272_ GND VDD _191_ _192_ INVX1
X_3273_ GND VDD _192_ _184_ _186_ _193_ NAND3X1
X_3274_ GND VDD _184_ _186_ _194_ NAND2X1
X_3275_ GND VDD _191_ _194_ _195_ NAND2X1
X_3276_ GND VDD _193_ _183_ _195_ _196_ NAND3X1
X_3277_ GND VDD _196_ _197_ INVX1
X_3278_ GND VDD _195_ _193_ _183_ _198_ AOI21X1
X_3279_ GND VDD _198_ _197_ _199_ NOR2X1
X_3280_ GND VDD _182_ _199_ _200_ OR2X2
X_3281_ GND VDD _199_ _182_ _201_ NAND2X1
X_3282_ GND VDD _200_ _201_ _3053_[17] AND2X2
X_3283_ GND VDD _171_ _196_ _198_ _202_ AOI21X1
X_3284_ GND VDD _202_ _203_ INVX1
X_3285_ GND VDD _199_ _174_ _204_ NAND2X1
X_3286_ GND VDD _204_ _177_ _203_ _205_ OAI21X1
X_3287_ GND VDD _187_ _188_ _193_ _206_ OAI21X1
X_3288_ GND VDD q1[9] q1[10] _168_ _207_ NAND3X1
X_3289_ GND VDD q1[10] _208_ INVX1
X_3290_ GND VDD _208_ _184_ _209_ NAND2X1
X_3291_ GND VDD q3[2] _210_ INVX1
X_3292_ GND VDD q2[10] _211_ INVX1
X_3293_ GND VDD _210_ _211_ _212_ NAND2X1
X_3294_ GND VDD q3[2] q2[10] _213_ NAND2X1
X_3295_ GND VDD _213_ _212_ _214_ NAND2X1
X_3296_ GND VDD _214_ _215_ INVX1
X_3297_ GND VDD _207_ _215_ _209_ _216_ NAND3X1
X_3298_ GND VDD _209_ _207_ _215_ _217_ AOI21X1
X_3299_ GND VDD _217_ _218_ INVX1
X_3300_ GND VDD _206_ _216_ _218_ _219_ NAND3X1
X_3301_ GND VDD _206_ _220_ INVX1
X_3302_ GND VDD _216_ _221_ INVX1
X_3303_ GND VDD _217_ _221_ _220_ _222_ OAI21X1
X_3304_ GND VDD _219_ _222_ _223_ AND2X2
X_3305_ GND VDD _223_ _205_ _224_ NAND2X1
X_3306_ GND VDD _205_ _223_ _225_ OR2X2
X_3307_ GND VDD _225_ _224_ _3053_[18] AND2X2
X_3308_ GND VDD _219_ _224_ _226_ NAND2X1
X_3309_ GND VDD _210_ _211_ _216_ _227_ OAI21X1
X_3310_ GND VDD _152_ _185_ _158_ _228_ NOR3X1
X_3311_ GND VDD q1[10] q1[11] _228_ _229_ NAND3X1
X_3312_ GND VDD q1[11] _230_ INVX1
X_3313_ GND VDD _208_ _184_ _230_ _231_ OAI21X1
X_3314_ GND VDD q3[3] q2[11] _232_ NOR2X1
X_3315_ GND VDD q3[3] _233_ INVX1
X_3316_ GND VDD q2[11] _234_ INVX1
X_3317_ GND VDD _233_ _234_ _235_ NOR2X1
X_3318_ GND VDD _232_ _235_ _236_ NOR2X1
X_3319_ GND VDD _231_ _236_ _229_ _237_ NAND3X1
X_3320_ GND VDD _231_ _229_ _238_ NAND2X1
X_3321_ GND VDD _232_ _235_ _238_ _239_ OAI21X1
X_3322_ GND VDD _227_ _237_ _239_ _240_ NAND3X1
X_3323_ GND VDD _216_ _213_ _241_ AND2X2
X_3324_ GND VDD _236_ _242_ INVX1
X_3325_ GND VDD _231_ _242_ _229_ _243_ NAND3X1
X_3326_ GND VDD _236_ _238_ _244_ NAND2X1
X_3327_ GND VDD _243_ _241_ _244_ _245_ NAND3X1
X_3328_ GND VDD _245_ _240_ _246_ NAND2X1
X_3329_ GND VDD _226_ _246_ _247_ OR2X2
X_3330_ GND VDD _246_ _226_ _248_ NAND2X1
X_3331_ GND VDD _248_ _247_ _3053_[19] NAND2X1
X_3332_ GND VDD _222_ _219_ _249_ NAND2X1
X_3333_ GND VDD _249_ _246_ _204_ _250_ NOR3X1
X_3334_ GND VDD _240_ _245_ _251_ AND2X2
X_3335_ GND VDD _202_ _223_ _251_ _252_ NAND3X1
X_3336_ GND VDD _219_ _253_ INVX1
X_3337_ GND VDD _253_ _251_ _254_ NAND2X1
X_3338_ GND VDD _240_ _254_ _252_ _255_ NAND3X1
X_3339_ GND VDD _180_ _250_ _255_ _256_ AOI21X1
X_3340_ GND VDD _233_ _234_ _237_ _257_ OAI21X1
X_3341_ GND VDD _208_ _184_ _258_ NOR2X1
X_3342_ GND VDD q1[11] q1[12] _258_ _259_ NAND3X1
X_3343_ GND VDD q1[12] _260_ INVX1
X_3344_ GND VDD _230_ _207_ _260_ _261_ OAI21X1
X_3345_ GND VDD q3[4] _262_ INVX1
X_3346_ GND VDD q2[12] _263_ INVX1
X_3347_ GND VDD _262_ _263_ _264_ NAND2X1
X_3348_ GND VDD q3[4] q2[12] _265_ NAND2X1
X_3349_ GND VDD _265_ _264_ _266_ NAND2X1
X_3350_ GND VDD _266_ _267_ INVX1
X_3351_ GND VDD _261_ _267_ _259_ _268_ NAND3X1
X_3352_ GND VDD _259_ _261_ _267_ _269_ AOI21X1
X_3353_ GND VDD _269_ _270_ INVX1
X_3354_ GND VDD _257_ _268_ _270_ _271_ NAND3X1
X_3355_ GND VDD _257_ _272_ INVX1
X_3356_ GND VDD _268_ _273_ INVX1
X_3357_ GND VDD _269_ _273_ _272_ _274_ OAI21X1
X_3358_ GND VDD _274_ _271_ _275_ NAND2X1
X_3359_ GND VDD _275_ _256_ _276_ NOR2X1
X_3360_ GND VDD _256_ _275_ _277_ AND2X2
X_3361_ GND VDD _276_ _277_ _3053_[20] NOR2X1
X_3362_ GND VDD _275_ _256_ _271_ _278_ OAI21X1
X_3363_ GND VDD _262_ _263_ _268_ _279_ OAI21X1
X_3364_ GND VDD _230_ _207_ _280_ NOR2X1
X_3365_ GND VDD q1[12] q1[13] _280_ _281_ NAND3X1
X_3366_ GND VDD q1[13] _282_ INVX1
X_3367_ GND VDD _260_ _229_ _282_ _283_ OAI21X1
X_3368_ GND VDD q3[5] q2[13] _284_ NOR2X1
X_3369_ GND VDD q3[5] _285_ INVX1
X_3370_ GND VDD q2[13] _286_ INVX1
X_3371_ GND VDD _285_ _286_ _287_ NOR2X1
X_3372_ GND VDD _284_ _287_ _288_ NOR2X1
X_3373_ GND VDD _288_ _283_ _281_ _289_ NAND3X1
X_3374_ GND VDD _260_ _282_ _229_ _290_ NOR3X1
X_3375_ GND VDD _280_ q1[12] q1[13] _291_ AOI21X1
X_3376_ GND VDD _288_ _292_ INVX1
X_3377_ GND VDD _291_ _290_ _292_ _293_ OAI21X1
X_3378_ GND VDD _279_ _289_ _293_ _294_ NAND3X1
X_3379_ GND VDD _268_ _265_ _295_ AND2X2
X_3380_ GND VDD _292_ _283_ _281_ _296_ NAND3X1
X_3381_ GND VDD _291_ _290_ _288_ _297_ OAI21X1
X_3382_ GND VDD _296_ _297_ _295_ _298_ NAND3X1
X_3383_ GND VDD _294_ _298_ _299_ NAND2X1
X_3384_ GND VDD _278_ _299_ _300_ OR2X2
X_3385_ GND VDD _299_ _278_ _301_ NAND2X1
X_3386_ GND VDD _301_ _300_ _3053_[21] NAND2X1
X_3387_ GND VDD _249_ _246_ _302_ NOR2X1
X_3388_ GND VDD _174_ _199_ _302_ _303_ NAND3X1
X_3389_ GND VDD _219_ _246_ _240_ _304_ OAI21X1
X_3390_ GND VDD _302_ _202_ _304_ _305_ AOI21X1
X_3391_ GND VDD _303_ _177_ _305_ _306_ OAI21X1
X_3392_ GND VDD _271_ _299_ _294_ _307_ OAI21X1
X_3393_ GND VDD _275_ _299_ _308_ NOR2X1
X_3394_ GND VDD _306_ _308_ _307_ _309_ AOI21X1
X_3395_ GND VDD _285_ _286_ _289_ _310_ OAI21X1
X_3396_ GND VDD _230_ _260_ _207_ _311_ NOR3X1
X_3397_ GND VDD q1[13] q1[14] _311_ _312_ NAND3X1
X_3398_ GND VDD q1[14] _313_ INVX1
X_3399_ GND VDD _282_ _259_ _313_ _314_ OAI21X1
X_3400_ GND VDD q3[6] _315_ INVX1
X_3401_ GND VDD q2[14] _316_ INVX1
X_3402_ GND VDD _315_ _316_ _317_ NAND2X1
X_3403_ GND VDD q3[6] q2[14] _318_ NAND2X1
X_3404_ GND VDD _318_ _317_ _319_ NAND2X1
X_3405_ GND VDD _319_ _320_ INVX1
X_3406_ GND VDD _312_ _320_ _314_ _321_ NAND3X1
X_3407_ GND VDD _314_ _312_ _320_ _322_ AOI21X1
X_3408_ GND VDD _322_ _323_ INVX1
X_3409_ GND VDD _310_ _321_ _323_ _324_ NAND3X1
X_3410_ GND VDD _310_ _325_ INVX1
X_3411_ GND VDD _321_ _326_ INVX1
X_3412_ GND VDD _322_ _326_ _325_ _327_ OAI21X1
X_3413_ GND VDD _324_ _327_ _328_ NAND2X1
X_3414_ GND VDD _328_ _309_ _329_ NOR2X1
X_3415_ GND VDD _309_ _328_ _330_ AND2X2
X_3416_ GND VDD _329_ _330_ _3053_[22] NOR2X1
X_3417_ GND VDD _324_ _331_ INVX1
X_3418_ GND VDD _331_ _329_ _332_ NOR2X1
X_3419_ GND VDD _315_ _316_ _321_ _333_ OAI21X1
X_3420_ GND VDD q3[7] _334_ INVX1
X_3421_ GND VDD q2[15] _335_ INVX1
X_3422_ GND VDD _334_ _335_ _336_ NAND2X1
X_3423_ GND VDD q3[7] q2[15] _337_ NAND2X1
X_3424_ GND VDD _337_ _336_ _338_ NAND2X1
X_3425_ GND VDD _338_ _339_ INVX1
X_3426_ GND VDD q1[15] _340_ INVX1
X_3427_ GND VDD _313_ _281_ _340_ _341_ OAI21X1
X_3428_ GND VDD q1[14] q1[15] _290_ _342_ NAND3X1
X_3429_ GND VDD _339_ _341_ _342_ _343_ NAND3X1
X_3430_ GND VDD _313_ _281_ q1[15] _344_ OAI21X1
X_3431_ GND VDD q1[14] _340_ _290_ _345_ NAND3X1
X_3432_ GND VDD _338_ _344_ _345_ _346_ NAND3X1
X_3433_ GND VDD _343_ _346_ _333_ _347_ NAND3X1
X_3434_ GND VDD _321_ _318_ _348_ AND2X2
X_3435_ GND VDD _345_ _344_ _338_ _349_ AOI21X1
X_3436_ GND VDD _342_ _341_ _339_ _350_ AOI21X1
X_3437_ GND VDD _349_ _350_ _348_ _351_ OAI21X1
X_3438_ GND VDD _351_ _347_ _352_ AND2X2
X_3439_ GND VDD _352_ _332_ _353_ NAND2X1
X_3440_ GND VDD _347_ _351_ _354_ NAND2X1
X_3441_ GND VDD _331_ _329_ _354_ _355_ OAI21X1
X_3442_ GND VDD _355_ _353_ _3053_[23] NAND2X1
X_3443_ GND VDD _327_ _324_ _356_ AND2X2
X_3444_ GND VDD _307_ _356_ _352_ _357_ NAND3X1
X_3445_ GND VDD _331_ _352_ _358_ NAND2X1
X_3446_ GND VDD _347_ _358_ _357_ _359_ NAND3X1
X_3447_ GND VDD _308_ _356_ _352_ _360_ NAND3X1
X_3448_ GND VDD _256_ _360_ _361_ NOR2X1
X_3449_ GND VDD _334_ _335_ _343_ _362_ OAI21X1
X_3450_ GND VDD q3[8] _362_ _363_ NAND2X1
X_3451_ GND VDD _362_ q3[8] _364_ OR2X2
X_3452_ GND VDD _364_ _363_ _365_ AND2X2
X_3453_ GND VDD _359_ _361_ _365_ _366_ OAI21X1
X_3454_ GND VDD _328_ _354_ _367_ NOR2X1
X_3455_ GND VDD _324_ _354_ _347_ _368_ OAI21X1
X_3456_ GND VDD _367_ _307_ _368_ _369_ AOI21X1
X_3457_ GND VDD _256_ _360_ _369_ _370_ OAI21X1
X_3458_ GND VDD _370_ _365_ _371_ OR2X2
X_3459_ GND VDD _371_ _366_ _3053_[24] AND2X2
X_3460_ GND VDD q3[9] _372_ INVX1
X_3461_ GND VDD _363_ _366_ _373_ NAND2X1
X_3462_ GND VDD _372_ _373_ _374_ NAND2X1
X_3463_ GND VDD q3[9] _363_ _366_ _375_ NAND3X1
X_3464_ GND VDD _375_ _374_ _3053_[25] NAND2X1
X_3465_ GND VDD q3[10] _376_ INVX1
X_3466_ GND VDD _372_ _376_ _377_ NOR2X1
X_3467_ GND VDD _377_ _373_ _378_ NAND2X1
X_3468_ GND VDD _372_ _363_ _379_ NOR2X1
X_3469_ GND VDD q3[9] _363_ _364_ _380_ NAND3X1
X_3470_ GND VDD _380_ _381_ INVX1
X_3471_ GND VDD _370_ _381_ _379_ _382_ AOI21X1
X_3472_ GND VDD _376_ _382_ _383_ NAND2X1
X_3473_ GND VDD _378_ _383_ _3053_[26] AND2X2
X_3474_ GND VDD _376_ _382_ q3[11] _384_ OAI21X1
X_3475_ GND VDD q3[11] _385_ INVX1
X_3476_ GND VDD _385_ _377_ _373_ _386_ NAND3X1
X_3477_ GND VDD _386_ _384_ _3053_[27] NAND2X1
X_3478_ GND VDD q3[12] _387_ INVX1
X_3479_ GND VDD _376_ _385_ _388_ NOR2X1
X_3480_ GND VDD _388_ _379_ _389_ NAND2X1
X_3481_ GND VDD _389_ _390_ INVX1
X_3482_ GND VDD _308_ _367_ _306_ _391_ NAND3X1
X_3483_ GND VDD q3[9] _388_ _365_ _392_ NAND3X1
X_3484_ GND VDD _369_ _391_ _392_ _393_ AOI21X1
X_3485_ GND VDD _390_ _393_ _387_ _394_ OAI21X1
X_3486_ GND VDD _388_ _395_ INVX1
X_3487_ GND VDD _395_ _380_ _396_ NOR2X1
X_3488_ GND VDD _370_ _396_ _390_ _397_ AOI21X1
X_3489_ GND VDD q3[12] _397_ _398_ NAND2X1
X_3490_ GND VDD _394_ _398_ _3053_[28] NAND2X1
X_3491_ GND VDD _387_ _397_ q3[13] _399_ OAI21X1
X_3492_ GND VDD q3[13] _400_ INVX1
X_3493_ GND VDD _359_ _361_ _396_ _401_ OAI21X1
X_3494_ GND VDD _389_ _401_ _402_ NAND2X1
X_3495_ GND VDD q3[12] _400_ _402_ _403_ NAND3X1
X_3496_ GND VDD _403_ _399_ _3053_[29] NAND2X1
X_3497_ GND VDD q3[14] _404_ INVX1
X_3498_ GND VDD _387_ _400_ _405_ NOR2X1
X_3499_ GND VDD _405_ _406_ INVX1
X_3500_ GND VDD _401_ _389_ _406_ _407_ AOI21X1
X_3501_ GND VDD _404_ _407_ _408_ NAND2X1
X_3502_ GND VDD _406_ _397_ q3[14] _409_ OAI21X1
X_3503_ GND VDD _409_ _408_ _3053_[30] NAND2X1
X_3504_ GND VDD _390_ _393_ _405_ _410_ OAI21X1
X_3505_ GND VDD _404_ _410_ q3[15] _411_ OAI21X1
X_3506_ GND VDD q3[15] _412_ INVX1
X_3507_ GND VDD q3[14] _412_ _407_ _413_ NAND3X1
X_3508_ GND VDD _413_ _411_ _3053_[31] NAND2X1
X_3509_ GND VDD _429_ _428_ _420_ _414_ AOI21X1
X_3510_ GND VDD _414_ _431_ _3053_[9] NOR2X1
X_3511_ GND VDD \z1.q1\[0] \z1.q0\[4] _575_ OR2X2
X_3512_ GND VDD \z1.q1\[0] \z1.q0\[4] _576_ NAND2X1
X_3513_ GND VDD _576_ _575_ _577_ NAND2X1
X_3514_ GND VDD _577_ _578_ INVX1
X_3515_ GND VDD _578_ \z1.q2\[0] _579_ AND2X2
X_3516_ GND VDD \z1.q2\[0] _578_ _580_ NOR2X1
X_3517_ GND VDD _580_ _579_ q0[4] NOR2X1
X_3518_ GND VDD \z1.z3.z1.z1.s\ _581_ INVX1
X_3519_ GND VDD _576_ _582_ INVX1
X_3520_ GND VDD \z1.z2.z1.z1.s\ \z1.q0\[5] _583_ NAND2X1
X_3521_ GND VDD \z1.z2.z1.z1.s\ \z1.q0\[5] _584_ OR2X2
X_3522_ GND VDD _583_ _584_ _582_ _585_ NAND3X1
X_3523_ GND VDD \z1.z2.z1.z1.s\ \z1.q0\[5] _586_ AND2X2
X_3524_ GND VDD \z1.z2.z1.z1.s\ \z1.q0\[5] _587_ NOR2X1
X_3525_ GND VDD _587_ _586_ _576_ _588_ OAI21X1
X_3526_ GND VDD _588_ _585_ _589_ NAND2X1
X_3527_ GND VDD _589_ _581_ _590_ OR2X2
X_3528_ GND VDD _581_ _589_ _591_ NAND2X1
X_3529_ GND VDD _590_ _591_ _592_ AND2X2
X_3530_ GND VDD _579_ _592_ _593_ NAND2X1
X_3531_ GND VDD _590_ _594_ INVX1
X_3532_ GND VDD _576_ _587_ _583_ _595_ OAI21X1
X_3533_ GND VDD \z1.q0\[6] _596_ INVX1
X_3534_ GND VDD \z1.q1\[2] _596_ _597_ NOR2X1
X_3535_ GND VDD \z1.q1\[2] _598_ INVX1
X_3536_ GND VDD \z1.q0\[6] _598_ _599_ NOR2X1
X_3537_ GND VDD _597_ _599_ _595_ _600_ OAI21X1
X_3538_ GND VDD \z1.q0\[6] _598_ _601_ NAND2X1
X_3539_ GND VDD \z1.q1\[2] _596_ _602_ NAND2X1
X_3540_ GND VDD _601_ _602_ _603_ NAND2X1
X_3541_ GND VDD _603_ _595_ _604_ OR2X2
X_3542_ GND VDD \z1.q2\[2] _600_ _604_ _605_ NAND3X1
X_3543_ GND VDD \z1.q2\[2] _606_ INVX1
X_3544_ GND VDD _600_ _604_ _607_ NAND2X1
X_3545_ GND VDD _606_ _607_ _608_ NAND2X1
X_3546_ GND VDD _608_ _605_ _594_ _609_ AOI21X1
X_3547_ GND VDD _609_ _610_ INVX1
X_3548_ GND VDD _605_ _608_ _594_ _611_ NAND3X1
X_3549_ GND VDD _593_ _611_ _610_ _612_ NAND3X1
X_3550_ GND VDD _593_ _613_ INVX1
X_3551_ GND VDD _611_ _614_ INVX1
X_3552_ GND VDD _609_ _614_ _613_ _615_ OAI21X1
X_3553_ GND VDD _612_ _615_ q0[6] NAND2X1
X_3554_ GND VDD _609_ _593_ _611_ _616_ OAI21X1
X_3555_ GND VDD _605_ _617_ INVX1
X_3556_ GND VDD \z1.q2\[3] _618_ INVX1
X_3557_ GND VDD \z1.q0\[7] _619_ INVX1
X_3558_ GND VDD \z1.q1\[3] _619_ _620_ NOR2X1
X_3559_ GND VDD \z1.q1\[3] _621_ INVX1
X_3560_ GND VDD \z1.q0\[7] _621_ _622_ NOR2X1
X_3561_ GND VDD \z1.q1\[2] \z1.q0\[6] _623_ NAND2X1
X_3562_ GND VDD _623_ _624_ INVX1
X_3563_ GND VDD _603_ _595_ _624_ _625_ AOI21X1
X_3564_ GND VDD _620_ _622_ _625_ _626_ OAI21X1
X_3565_ GND VDD \z1.q1\[3] \z1.q0\[7] _627_ NAND2X1
X_3566_ GND VDD _627_ _628_ INVX1
X_3567_ GND VDD \z1.q1\[3] \z1.q0\[7] _629_ NOR2X1
X_3568_ GND VDD _625_ _630_ INVX1
X_3569_ GND VDD _628_ _629_ _630_ _631_ OAI21X1
X_3570_ GND VDD _631_ _626_ _618_ _433_ AOI21X1
X_3571_ GND VDD _433_ _434_ INVX1
X_3572_ GND VDD _618_ _626_ _631_ _435_ NAND3X1
X_3573_ GND VDD _434_ _435_ _617_ _436_ AOI21X1
X_3574_ GND VDD _617_ _435_ _434_ _437_ NAND3X1
X_3575_ GND VDD _437_ _438_ INVX1
X_3576_ GND VDD _436_ _438_ _616_ _439_ OAI21X1
X_3577_ GND VDD _616_ _440_ INVX1
X_3578_ GND VDD _435_ _434_ _441_ NAND2X1
X_3579_ GND VDD _606_ _607_ _441_ _442_ OAI21X1
X_3580_ GND VDD _437_ _440_ _442_ _443_ NAND3X1
X_3581_ GND VDD _443_ _439_ q0[7] NAND2X1
X_3582_ GND VDD _442_ _616_ _438_ _444_ AOI21X1
X_3583_ GND VDD _582_ _584_ _586_ _445_ AOI21X1
X_3584_ GND VDD _597_ _599_ _620_ _622_ 
+ _446_
+ OAI22X1
X_3585_ GND VDD _623_ _629_ _627_ _447_ OAI21X1
X_3586_ GND VDD _447_ _448_ INVX1
X_3587_ GND VDD _445_ _446_ _448_ _449_ OAI21X1
X_3588_ GND VDD \z1.q1\[4] _449_ _450_ NAND2X1
X_3589_ GND VDD \z1.q1\[4] _451_ INVX1
X_3590_ GND VDD \z1.q0\[7] _621_ _452_ NAND2X1
X_3591_ GND VDD \z1.q1\[3] _619_ _453_ NAND2X1
X_3592_ GND VDD _452_ _453_ _454_ NAND2X1
X_3593_ GND VDD _595_ _603_ _454_ _455_ NAND3X1
X_3594_ GND VDD _451_ _448_ _455_ _456_ NAND3X1
X_3595_ GND VDD \z1.q3\[0] \z1.q2\[4] _457_ NAND2X1
X_3596_ GND VDD \z1.q3\[0] _458_ INVX1
X_3597_ GND VDD \z1.q2\[4] _459_ INVX1
X_3598_ GND VDD _458_ _459_ _460_ NAND2X1
X_3599_ GND VDD _457_ _460_ _461_ NAND2X1
X_3600_ GND VDD _461_ _462_ INVX1
X_3601_ GND VDD _456_ _462_ _450_ _463_ NAND3X1
X_3602_ GND VDD _455_ _448_ _451_ _464_ AOI21X1
X_3603_ GND VDD _456_ _465_ INVX1
X_3604_ GND VDD _464_ _465_ _461_ _466_ OAI21X1
X_3605_ GND VDD _463_ _466_ _433_ _467_ NAND3X1
X_3606_ GND VDD _463_ _466_ _468_ NAND2X1
X_3607_ GND VDD _468_ _434_ _469_ NAND2X1
X_3608_ GND VDD _469_ _467_ _470_ AND2X2
X_3609_ GND VDD _470_ _444_ _471_ NAND2X1
X_3610_ GND VDD _436_ _440_ _437_ _472_ OAI21X1
X_3611_ GND VDD _467_ _469_ _473_ NAND2X1
X_3612_ GND VDD _473_ _472_ _474_ NAND2X1
X_3613_ GND VDD _471_ _474_ q0[8] NAND2X1
X_3614_ GND VDD _473_ _444_ _467_ _475_ OAI21X1
X_3615_ GND VDD _458_ _459_ _463_ _476_ OAI21X1
X_3616_ GND VDD \z1.q1\[4] \z1.q1\[5] _449_ _477_ NAND3X1
X_3617_ GND VDD \z1.q1\[5] _478_ INVX1
X_3618_ GND VDD _601_ _602_ _452_ _453_ 
+ _479_
+ AOI22X1
X_3619_ GND VDD _479_ _595_ _447_ _480_ AOI21X1
X_3620_ GND VDD _451_ _480_ _478_ _481_ OAI21X1
X_3621_ GND VDD \z1.z4.z1.z1.s\ _482_ INVX1
X_3622_ GND VDD \z1.q2\[5] _483_ INVX1
X_3623_ GND VDD _482_ _483_ _484_ NAND2X1
X_3624_ GND VDD \z1.z4.z1.z1.s\ \z1.q2\[5] _485_ NAND2X1
X_3625_ GND VDD _484_ _485_ _486_ AND2X2
X_3626_ GND VDD _486_ _481_ _477_ _487_ NAND3X1
X_3627_ GND VDD _477_ _481_ _486_ _488_ AOI21X1
X_3628_ GND VDD _488_ _489_ INVX1
X_3629_ GND VDD _487_ _476_ _489_ _490_ NAND3X1
X_3630_ GND VDD _463_ _457_ _491_ AND2X2
X_3631_ GND VDD _487_ _492_ INVX1
X_3632_ GND VDD _492_ _488_ _491_ _493_ OAI21X1
X_3633_ GND VDD _490_ _493_ _494_ NAND2X1
X_3634_ GND VDD _475_ _494_ _495_ OR2X2
X_3635_ GND VDD _494_ _475_ _496_ NAND2X1
X_3636_ GND VDD _496_ _495_ q0[9] NAND2X1
X_3637_ GND VDD _490_ _493_ _470_ _497_ NAND3X1
X_3638_ GND VDD _434_ _468_ _490_ _498_ OAI21X1
X_3639_ GND VDD _493_ _498_ _499_ NAND2X1
X_3640_ GND VDD _444_ _497_ _499_ _500_ OAI21X1
X_3641_ GND VDD _482_ _483_ _487_ _501_ OAI21X1
X_3642_ GND VDD \z1.q1\[5] \z1.q1\[6] _464_ _502_ NAND3X1
X_3643_ GND VDD \z1.q1\[6] _503_ INVX1
X_3644_ GND VDD _503_ _477_ _504_ NAND2X1
X_3645_ GND VDD \z1.q3\[2] _505_ INVX1
X_3646_ GND VDD \z1.q2\[6] _506_ INVX1
X_3647_ GND VDD _505_ _506_ _507_ NAND2X1
X_3648_ GND VDD \z1.q3\[2] \z1.q2\[6] _508_ NAND2X1
X_3649_ GND VDD _508_ _507_ _509_ NAND2X1
X_3650_ GND VDD _509_ _510_ INVX1
X_3651_ GND VDD _502_ _510_ _504_ _511_ NAND3X1
X_3652_ GND VDD _504_ _502_ _510_ _512_ AOI21X1
X_3653_ GND VDD _512_ _513_ INVX1
X_3654_ GND VDD _501_ _511_ _513_ _514_ NAND3X1
X_3655_ GND VDD _501_ _515_ INVX1
X_3656_ GND VDD _511_ _516_ INVX1
X_3657_ GND VDD _512_ _516_ _515_ _517_ OAI21X1
X_3658_ GND VDD _517_ _514_ _518_ NAND2X1
X_3659_ GND VDD _518_ _500_ _519_ NAND2X1
X_3660_ GND VDD _473_ _494_ _520_ NOR2X1
X_3661_ GND VDD _493_ _498_ _520_ _472_ 
+ _521_
+ AOI22X1
X_3662_ GND VDD _514_ _517_ _522_ AND2X2
X_3663_ GND VDD _522_ _521_ _523_ NAND2X1
X_3664_ GND VDD _519_ _523_ q0[10] NAND2X1
X_3665_ GND VDD _518_ _521_ _514_ _524_ OAI21X1
X_3666_ GND VDD _505_ _506_ _511_ _525_ OAI21X1
X_3667_ GND VDD \z1.q3\[3] \z1.q2\[7] _526_ NOR2X1
X_3668_ GND VDD \z1.q3\[3] _527_ INVX1
X_3669_ GND VDD \z1.q2\[7] _528_ INVX1
X_3670_ GND VDD _527_ _528_ _529_ NOR2X1
X_3671_ GND VDD _526_ _529_ _530_ NOR2X1
X_3672_ GND VDD \z1.q1\[7] _531_ INVX1
X_3673_ GND VDD _503_ _477_ _531_ _532_ OAI21X1
X_3674_ GND VDD _464_ \z1.q1\[5] _533_ AND2X2
X_3675_ GND VDD \z1.q1\[6] \z1.q1\[7] _533_ _534_ NAND3X1
X_3676_ GND VDD _530_ _532_ _534_ _535_ NAND3X1
X_3677_ GND VDD _530_ _536_ INVX1
X_3678_ GND VDD _503_ _477_ \z1.q1\[7] _537_ OAI21X1
X_3679_ GND VDD \z1.q1\[6] _531_ _533_ _538_ NAND3X1
X_3680_ GND VDD _536_ _537_ _538_ _539_ NAND3X1
X_3681_ GND VDD _535_ _539_ _525_ _540_ NAND3X1
X_3682_ GND VDD _511_ _508_ _541_ AND2X2
X_3683_ GND VDD _535_ _539_ _542_ NAND2X1
X_3684_ GND VDD _541_ _542_ _543_ NAND2X1
X_3685_ GND VDD _540_ _543_ _544_ NAND2X1
X_3686_ GND VDD _524_ _544_ _545_ OR2X2
X_3687_ GND VDD _544_ _524_ _546_ NAND2X1
X_3688_ GND VDD _546_ _545_ q0[11] NAND2X1
X_3689_ GND VDD _541_ _542_ _514_ _547_ OAI21X1
X_3690_ GND VDD _543_ _547_ _548_ NAND2X1
X_3691_ GND VDD _540_ _543_ _522_ _549_ NAND3X1
X_3692_ GND VDD _549_ _521_ _548_ _550_ OAI21X1
X_3693_ GND VDD _527_ _528_ _535_ _551_ OAI21X1
X_3694_ GND VDD \z1.q3\[4] _551_ _552_ NAND2X1
X_3695_ GND VDD _551_ \z1.q3\[4] _553_ OR2X2
X_3696_ GND VDD _552_ _553_ _550_ _554_ NAND3X1
X_3697_ GND VDD _518_ _544_ _555_ NOR2X1
X_3698_ GND VDD _543_ _547_ _555_ _500_ 
+ _556_
+ AOI22X1
X_3699_ GND VDD _552_ _553_ _557_ NAND2X1
X_3700_ GND VDD _557_ _556_ _558_ NAND2X1
X_3701_ GND VDD _554_ _558_ q0[12] AND2X2
X_3702_ GND VDD \z1.q3\[5] _559_ INVX1
X_3703_ GND VDD _557_ _556_ _552_ _560_ OAI21X1
X_3704_ GND VDD _559_ _560_ _561_ NAND2X1
X_3705_ GND VDD \z1.q3\[5] _552_ _554_ _562_ NAND3X1
X_3706_ GND VDD _562_ _561_ q0[13] NAND2X1
X_3707_ GND VDD \z1.q3\[6] _563_ INVX1
X_3708_ GND VDD \z1.q3\[5] _552_ _553_ _564_ NAND3X1
X_3709_ GND VDD _559_ _552_ _564_ _556_ 
+ _565_
+ OAI22X1
X_3710_ GND VDD _563_ _565_ _566_ NAND2X1
X_3711_ GND VDD _552_ _567_ INVX1
X_3712_ GND VDD _564_ _568_ INVX1
X_3713_ GND VDD \z1.q3\[5] _567_ _550_ _568_ 
+ _569_
+ AOI22X1
X_3714_ GND VDD \z1.q3\[6] _569_ _570_ NAND2X1
X_3715_ GND VDD _570_ _566_ q0[14] NAND2X1
X_3716_ GND VDD _563_ _569_ \z1.q3\[7] _571_ OAI21X1
X_3717_ GND VDD \z1.q3\[7] _572_ INVX1
X_3718_ GND VDD \z1.q3\[6] _572_ _565_ _573_ NAND3X1
X_3719_ GND VDD _573_ _571_ q0[15] NAND2X1
X_3720_ GND VDD _579_ _592_ _574_ NOR2X1
X_3721_ GND VDD _574_ _613_ q0[5] NOR2X1
X_3722_ GND VDD \z1.z1.q1\[0] \z1.z1.z1.z2.s\ _639_ NOR2X1
X_3723_ GND VDD \z1.z1.q1\[0] \z1.z1.z1.z2.s\ _640_ AND2X2
X_3724_ GND VDD _639_ _640_ _641_ NOR2X1
X_3725_ GND VDD \z1.z1.q2\[0] _641_ _642_ NAND2X1
X_3726_ GND VDD _642_ _643_ INVX1
X_3727_ GND VDD \z1.z1.q2\[0] _641_ _644_ NOR2X1
X_3728_ GND VDD _644_ _643_ q0[2] NOR2X1
X_3729_ GND VDD \z1.z1.q1\[0] \z1.z1.z1.z2.s\ _645_ NAND2X1
X_3730_ GND VDD \z1.z1.z2.z1.s\ \z1.z1.z1.z2.c\ _646_ NOR2X1
X_3731_ GND VDD \z1.z1.z2.z1.s\ \z1.z1.z1.z2.c\ _647_ NAND2X1
X_3732_ GND VDD _647_ _648_ INVX1
X_3733_ GND VDD _646_ _648_ _645_ _649_ OAI21X1
X_3734_ GND VDD \z1.z1.z2.z1.s\ _650_ INVX1
X_3735_ GND VDD \z1.z1.z1.z2.c\ _651_ INVX1
X_3736_ GND VDD _650_ _651_ _652_ NAND2X1
X_3737_ GND VDD _640_ _647_ _652_ _653_ NAND3X1