* NGSPICE file created from cpu.ext - technology: scmos

* Black-box entry subcircuit for FILL abstract view
.subckt FILL gnd vdd
.ends

* Black-box entry subcircuit for INVX1 abstract view
.subckt INVX1 A Y vdd gnd
.ends

* Black-box entry subcircuit for XOR2X1 abstract view
.subckt XOR2X1 A B Y vdd gnd
.ends

* Black-box entry subcircuit for OAI21X1 abstract view
.subckt OAI21X1 A B C Y vdd gnd
.ends

* Black-box entry subcircuit for NOR2X1 abstract view
.subckt NOR2X1 A B Y vdd gnd
.ends

* Black-box entry subcircuit for NAND2X1 abstract view
.subckt NAND2X1 A B Y vdd gnd
.ends

* Black-box entry subcircuit for NAND3X1 abstract view
.subckt NAND3X1 A B C Y vdd gnd
.ends

* Black-box entry subcircuit for AOI22X1 abstract view
.subckt AOI22X1 A B C D Y vdd gnd
.ends

* Black-box entry subcircuit for AND2X2 abstract view
.subckt AND2X2 A B Y vdd gnd
.ends

* Black-box entry subcircuit for BUFX2 abstract view
.subckt BUFX2 A Y vdd gnd
.ends

* Black-box entry subcircuit for OAI22X1 abstract view
.subckt OAI22X1 A B C D Y vdd gnd
.ends

* Black-box entry subcircuit for DFFSR abstract view
.subckt DFFSR D S R CLK Q vdd gnd
.ends

* Black-box entry subcircuit for AOI21X1 abstract view
.subckt AOI21X1 A B C Y vdd gnd
.ends

* Black-box entry subcircuit for OR2X2 abstract view
.subckt OR2X2 A B Y vdd gnd
.ends

* Black-box entry subcircuit for INVX2 abstract view
.subckt INVX2 A Y vdd gnd
.ends

* Black-box entry subcircuit for INVX4 abstract view
.subckt INVX4 A Y vdd gnd
.ends

* Black-box entry subcircuit for CLKBUF1 abstract view
.subckt CLKBUF1 A Y vdd gnd
.ends

* Black-box entry subcircuit for DFFPOSX1 abstract view
.subckt DFFPOSX1 D CLK Q vdd gnd
.ends

* Black-box entry subcircuit for NOR3X1 abstract view
.subckt NOR3X1 A B C Y vdd gnd
.ends

* Black-box entry subcircuit for XNOR2X1 abstract view
.subckt XNOR2X1 A B Y vdd gnd
.ends

* Black-box entry subcircuit for INVX8 abstract view
.subckt INVX8 A Y vdd gnd
.ends

* Black-box entry subcircuit for MUX2X1 abstract view
.subckt MUX2X1 A B S Y vdd gnd
.ends

.subckt cpu gnd vdd AB[15] AB[14] AB[13] AB[12] AB[11] AB[10] AB[9] AB[8] AB[7] AB[6]
+ AB[5] AB[4] AB[3] AB[2] AB[1] AB[0] DI[7] DI[6] DI[5] DI[4] DI[3] DI[2] DI[1] DI[0]
+ DO[7] DO[6] DO[5] DO[4] DO[3] DO[2] DO[1] DO[0] IRQ NMI RDY WE clk reset
XFILL_0__2877_ gnd vdd FILL
XFILL_3__2586_ gnd vdd FILL
XFILL_6__2295_ gnd vdd FILL
X_3155_ _3196_/A _3170_/B vdd gnd INVX1
XFILL_0__1828_ gnd vdd FILL
XFILL_0__1759_ gnd vdd FILL
X_3086_ _3086_/A _3577_/Q _3087_/B vdd gnd XOR2X1
X_2106_ _2294_/A _2441_/B _2106_/C _2107_/B vdd gnd OAI21X1
X_2037_ _2922_/A _2931_/A vdd gnd INVX1
XFILL_4__2000_ gnd vdd FILL
XFILL_3__3207_ gnd vdd FILL
XFILL_0__3429_ gnd vdd FILL
XFILL_1__2222_ gnd vdd FILL
XFILL_3__3138_ gnd vdd FILL
XFILL_7__1990_ gnd vdd FILL
XFILL_3__3069_ gnd vdd FILL
XFILL_1__2153_ gnd vdd FILL
X_2939_ reset _2957_/C _2940_/A vdd gnd NOR2X1
XFILL_1__2084_ gnd vdd FILL
XFILL_4__2902_ gnd vdd FILL
XFILL_7__2611_ gnd vdd FILL
XFILL_4__2833_ gnd vdd FILL
XFILL_7__3591_ gnd vdd FILL
XFILL_9__3458_ gnd vdd FILL
XFILL_7__2542_ gnd vdd FILL
XFILL_4__2764_ gnd vdd FILL
XFILL_8_CLKBUF1_insert33 gnd vdd FILL
XFILL_1__2986_ gnd vdd FILL
XFILL_7__2473_ gnd vdd FILL
XFILL_4__1715_ gnd vdd FILL
XFILL_1__1937_ gnd vdd FILL
XFILL_4__2695_ gnd vdd FILL
XFILL_1__1868_ gnd vdd FILL
XFILL_2__3380_ gnd vdd FILL
XFILL_2__2400_ gnd vdd FILL
XFILL_1__1799_ gnd vdd FILL
XFILL_1__3538_ gnd vdd FILL
XFILL_2__2331_ gnd vdd FILL
XFILL_7__3025_ gnd vdd FILL
XFILL_5__2040_ gnd vdd FILL
XFILL_1__3469_ gnd vdd FILL
XFILL_2__2262_ gnd vdd FILL
XFILL_4__3178_ gnd vdd FILL
XFILL_2__2193_ gnd vdd FILL
XFILL_4__2129_ gnd vdd FILL
XFILL_8__2720_ gnd vdd FILL
XFILL_5__2942_ gnd vdd FILL
XFILL_8__2651_ gnd vdd FILL
XFILL_7__2809_ gnd vdd FILL
XFILL_5__2873_ gnd vdd FILL
XFILL_5__1824_ gnd vdd FILL
XFILL_8__2582_ gnd vdd FILL
XFILL_5__1755_ gnd vdd FILL
XFILL_2__1977_ gnd vdd FILL
XFILL_0__2800_ gnd vdd FILL
XFILL_8__3203_ gnd vdd FILL
XFILL_5__3425_ gnd vdd FILL
XFILL_0__2731_ gnd vdd FILL
XFILL_8__3134_ gnd vdd FILL
XFILL_3__2440_ gnd vdd FILL
XFILL_3__2371_ gnd vdd FILL
XFILL182250x140550 gnd vdd FILL
XFILL_8__3065_ gnd vdd FILL
XFILL_5__2307_ gnd vdd FILL
XFILL_0__2662_ gnd vdd FILL
XFILL_6__2080_ gnd vdd FILL
XFILL_8__2016_ gnd vdd FILL
XFILL_2__2529_ gnd vdd FILL
XFILL_0__2593_ gnd vdd FILL
XFILL_5__2238_ gnd vdd FILL
XFILL_5__2169_ gnd vdd FILL
XFILL_8__2918_ gnd vdd FILL
XFILL_6__2982_ gnd vdd FILL
XFILL_0__3214_ gnd vdd FILL
XFILL_4_BUFX2_insert3 gnd vdd FILL
XFILL_6__1933_ gnd vdd FILL
XFILL_0__3145_ gnd vdd FILL
XFILL_8__2849_ gnd vdd FILL
XFILL_0__3076_ gnd vdd FILL
XFILL_6__1864_ gnd vdd FILL
X_2724_ _2724_/A _2733_/B _2731_/A vdd gnd NOR2X1
XFILL_6__3603_ gnd vdd FILL
XFILL_0__2027_ gnd vdd FILL
X_2655_ _3244_/Q _2685_/B _2656_/C vdd gnd NAND2X1
XFILL_6__1795_ gnd vdd FILL
XFILL_1__2840_ gnd vdd FILL
XFILL_6__3534_ gnd vdd FILL
XFILL_6__3465_ gnd vdd FILL
X_2586_ _3176_/B _2586_/B _3178_/B _2587_/B vdd gnd NAND3X1
XFILL_6__2416_ gnd vdd FILL
XFILL_3__2707_ gnd vdd FILL
XFILL_1__2771_ gnd vdd FILL
XFILL_4__2480_ gnd vdd FILL
XFILL_0__2929_ gnd vdd FILL
XFILL_6__3396_ gnd vdd FILL
XFILL_1__1722_ gnd vdd FILL
XFILL_3__2638_ gnd vdd FILL
XFILL_6__2347_ gnd vdd FILL
X_3207_ _3215_/A _3207_/B _3207_/C _3351_/D vdd gnd OAI21X1
X_3138_ _3345_/Q _3143_/B _3139_/C vdd gnd NAND2X1
XFILL_4__3101_ gnd vdd FILL
XFILL_6__2278_ gnd vdd FILL
XFILL_3__2569_ gnd vdd FILL
XFILL_4__3032_ gnd vdd FILL
X_3069_ _3069_/A _3071_/B vdd gnd INVX1
XFILL_1__2205_ gnd vdd FILL
XFILL_7__1973_ gnd vdd FILL
XFILL_1__3185_ gnd vdd FILL
XFILL_1__2136_ gnd vdd FILL
XFILL_1__2067_ gnd vdd FILL
XFILL_2__2880_ gnd vdd FILL
XFILL_2__1900_ gnd vdd FILL
XFILL_4__2816_ gnd vdd FILL
XFILL_2__1831_ gnd vdd FILL
XFILL_7__2525_ gnd vdd FILL
XFILL_7_BUFX2_insert7 gnd vdd FILL
XFILL_4__2747_ gnd vdd FILL
XFILL_1__2969_ gnd vdd FILL
XFILL_7__2456_ gnd vdd FILL
XFILL_4__2678_ gnd vdd FILL
XFILL_2__1762_ gnd vdd FILL
XFILL_2__3501_ gnd vdd FILL
XFILL_7__2387_ gnd vdd FILL
XFILL_5__3210_ gnd vdd FILL
XFILL_2__1693_ gnd vdd FILL
XFILL_2__3432_ gnd vdd FILL
XFILL_5__3141_ gnd vdd FILL
XFILL_7__3008_ gnd vdd FILL
XFILL_5__3072_ gnd vdd FILL
XFILL_5__2023_ gnd vdd FILL
XFILL_2__2314_ gnd vdd FILL
XFILL_2__2245_ gnd vdd FILL
XFILL_2__2176_ gnd vdd FILL
XFILL_8__2703_ gnd vdd FILL
XFILL_5__2925_ gnd vdd FILL
XFILL_3__1940_ gnd vdd FILL
XFILL_8__2634_ gnd vdd FILL
XFILL_5__2856_ gnd vdd FILL
XFILL_8__2565_ gnd vdd FILL
XFILL_3__1871_ gnd vdd FILL
XFILL_5__2787_ gnd vdd FILL
XFILL_5__1807_ gnd vdd FILL
X_2440_ _3166_/B _3166_/D _2699_/B vdd gnd NAND2X1
XFILL_8__2496_ gnd vdd FILL
XFILL_5__1738_ gnd vdd FILL
X_2371_ _3273_/Q _2863_/A vdd gnd INVX1
XFILL_3__3541_ gnd vdd FILL
XFILL_3__3472_ gnd vdd FILL
XFILL_6__2201_ gnd vdd FILL
XFILL_8__3117_ gnd vdd FILL
XFILL_5__3408_ gnd vdd FILL
XFILL_3__2423_ gnd vdd FILL
XFILL_0__2714_ gnd vdd FILL
XFILL_6__3181_ gnd vdd FILL
XFILL_6__2132_ gnd vdd FILL
XFILL_0__2645_ gnd vdd FILL
XFILL_3__2354_ gnd vdd FILL
XFILL_8__3048_ gnd vdd FILL
XFILL_6__2063_ gnd vdd FILL
XFILL_0__2576_ gnd vdd FILL
XFILL_3__2285_ gnd vdd FILL
XFILL_5_BUFX2_insert61 gnd vdd FILL
XFILL_5_BUFX2_insert50 gnd vdd FILL
XFILL_5_BUFX2_insert94 gnd vdd FILL
XFILL_6__2965_ gnd vdd FILL
XFILL_4__1980_ gnd vdd FILL
XFILL_5_BUFX2_insert83 gnd vdd FILL
XFILL182850x74250 gnd vdd FILL
XFILL_5_BUFX2_insert72 gnd vdd FILL
XFILL_0__3128_ gnd vdd FILL
XFILL_6__2896_ gnd vdd FILL
XFILL_6__1916_ gnd vdd FILL
XFILL_0__3059_ gnd vdd FILL
XFILL_6__1847_ gnd vdd FILL
X_2707_ _3248_/Q _2725_/D _2725_/C _2708_/D vdd gnd NAND3X1
XFILL_6__3517_ gnd vdd FILL
XFILL_7__2310_ gnd vdd FILL
XFILL_6__1778_ gnd vdd FILL
XFILL_4__3581_ gnd vdd FILL
XFILL_4__2601_ gnd vdd FILL
X_2638_ _2638_/A _2638_/B _2638_/C _2638_/D _2639_/C vdd gnd AOI22X1
XFILL_1__2823_ gnd vdd FILL
XFILL_4__2532_ gnd vdd FILL
X_2569_ _2569_/A _2569_/B _3297_/D _2570_/C vdd gnd OAI21X1
XFILL_6__3448_ gnd vdd FILL
XFILL_7__2241_ gnd vdd FILL
XFILL_1__2754_ gnd vdd FILL
XFILL_6__3379_ gnd vdd FILL
XFILL_7__2172_ gnd vdd FILL
XFILL_1__1705_ gnd vdd FILL
XFILL_4__2463_ gnd vdd FILL
XFILL_4__2394_ gnd vdd FILL
XFILL_1__2685_ gnd vdd FILL
XFILL_4__3015_ gnd vdd FILL
XFILL_2__2030_ gnd vdd FILL
XFILL_7__1956_ gnd vdd FILL
XFILL_1__3168_ gnd vdd FILL
XFILL_1__3099_ gnd vdd FILL
XFILL_7__1887_ gnd vdd FILL
XFILL_1__2119_ gnd vdd FILL
XFILL_5__2710_ gnd vdd FILL
XFILL_2__2932_ gnd vdd FILL
XFILL_5__2641_ gnd vdd FILL
XFILL_2__2863_ gnd vdd FILL
XFILL_7__3557_ gnd vdd FILL
XFILL_8__2350_ gnd vdd FILL
XFILL_5__2572_ gnd vdd FILL
XFILL_7__3488_ gnd vdd FILL
XFILL_2__2794_ gnd vdd FILL
XFILL_8__2281_ gnd vdd FILL
XFILL_2__1814_ gnd vdd FILL
XFILL_7__2508_ gnd vdd FILL
XFILL_2__1745_ gnd vdd FILL
XFILL_7__2439_ gnd vdd FILL
XFILL_5__3124_ gnd vdd FILL
XFILL_2__3415_ gnd vdd FILL
XFILL_0__2430_ gnd vdd FILL
XFILL_0__2361_ gnd vdd FILL
XFILL_5__3055_ gnd vdd FILL
XFILL_5__2006_ gnd vdd FILL
XFILL_3__2070_ gnd vdd FILL
X_1940_ _3318_/Q _3029_/B _1941_/B vdd gnd NAND2X1
XFILL_2__2228_ gnd vdd FILL
XFILL_8__1996_ gnd vdd FILL
XFILL_0__2292_ gnd vdd FILL
X_1871_ _1871_/A _1872_/C vdd gnd INVX1
XFILL_2__2159_ gnd vdd FILL
XFILL182850x148350 gnd vdd FILL
XFILL_6__2750_ gnd vdd FILL
XFILL_5__2908_ gnd vdd FILL
XFILL_3__2972_ gnd vdd FILL
X_3541_ _3553_/B _3555_/B _3541_/C _3569_/D vdd gnd OAI21X1
XFILL_6__1701_ gnd vdd FILL
XFILL_6__2681_ gnd vdd FILL
XFILL_8__2617_ gnd vdd FILL
XFILL_5__2839_ gnd vdd FILL
XFILL_8__3597_ gnd vdd FILL
XFILL_3__1923_ gnd vdd FILL
X_3472_ _3472_/A _3472_/B _3473_/C vdd gnd NAND2X1
XFILL184350x124950 gnd vdd FILL
XFILL_3__1854_ gnd vdd FILL
XFILL_8__2548_ gnd vdd FILL
X_2423_ _2423_/A _2515_/A _2428_/C vdd gnd NAND2X1
XFILL_8__2479_ gnd vdd FILL
X_2354_ _3270_/Q _2837_/A vdd gnd INVX1
XFILL_3__1785_ gnd vdd FILL
XFILL_3__3524_ gnd vdd FILL
XFILL_3__3455_ gnd vdd FILL
X_2285_ _2285_/A _2285_/B _2286_/C vdd gnd AND2X2
XFILL_3__3386_ gnd vdd FILL
XFILL_1__2470_ gnd vdd FILL
XFILL_6__3164_ gnd vdd FILL
XFILL_3__2406_ gnd vdd FILL
XFILL_6__3095_ gnd vdd FILL
XFILL_3__2337_ gnd vdd FILL
XFILL_6__2115_ gnd vdd FILL
XFILL_0__2628_ gnd vdd FILL
XBUFX2_insert0 _1773_/Y _3166_/B vdd gnd BUFX2
XFILL_6__2046_ gnd vdd FILL
XFILL_0__2559_ gnd vdd FILL
XFILL_3__2268_ gnd vdd FILL
XFILL_3__2199_ gnd vdd FILL
XFILL_7__2790_ gnd vdd FILL
XFILL_1__3022_ gnd vdd FILL
XFILL_7__1810_ gnd vdd FILL
XFILL_6__2948_ gnd vdd FILL
XFILL_7__1741_ gnd vdd FILL
XFILL_4__1963_ gnd vdd FILL
XFILL_7__3411_ gnd vdd FILL
XFILL_6__2879_ gnd vdd FILL
XFILL_4__1894_ gnd vdd FILL
XFILL_1__2806_ gnd vdd FILL
XFILL_4__3564_ gnd vdd FILL
XFILL_9__3209_ gnd vdd FILL
XFILL_4__3495_ gnd vdd FILL
XFILL_7__2224_ gnd vdd FILL
XFILL_4__2515_ gnd vdd FILL
XFILL_3_CLKBUF1_insert34 gnd vdd FILL
XFILL_4__2446_ gnd vdd FILL
XFILL_1__2737_ gnd vdd FILL
XFILL_1_BUFX2_insert70 gnd vdd FILL
XFILL_1_BUFX2_insert92 gnd vdd FILL
XFILL_7__2155_ gnd vdd FILL
XFILL_1_BUFX2_insert81 gnd vdd FILL
XFILL_1__2668_ gnd vdd FILL
XFILL_7__2086_ gnd vdd FILL
XFILL_4__2377_ gnd vdd FILL
XFILL_2__3200_ gnd vdd FILL
XFILL_2__3131_ gnd vdd FILL
XFILL_1__2599_ gnd vdd FILL
XFILL_2__3062_ gnd vdd FILL
XFILL_8__1850_ gnd vdd FILL
XFILL_2__2013_ gnd vdd FILL
XFILL_7__2988_ gnd vdd FILL
XFILL_8__1781_ gnd vdd FILL
XFILL_7__1939_ gnd vdd FILL
XFILL_8__3520_ gnd vdd FILL
XFILL_8__3451_ gnd vdd FILL
XFILL_2__2915_ gnd vdd FILL
XFILL_8__3382_ gnd vdd FILL
XFILL_8__2402_ gnd vdd FILL
XFILL_0__1930_ gnd vdd FILL
XFILL_8__2333_ gnd vdd FILL
XFILL_5__2624_ gnd vdd FILL
XFILL_2__2846_ gnd vdd FILL
XFILL_0__1861_ gnd vdd FILL
XFILL_5__2555_ gnd vdd FILL
XFILL_8__2264_ gnd vdd FILL
XFILL_0__3600_ gnd vdd FILL
XFILL_2__2777_ gnd vdd FILL
XFILL_8__2195_ gnd vdd FILL
XFILL_0__1792_ gnd vdd FILL
XFILL_5__2486_ gnd vdd FILL
XFILL_2__1728_ gnd vdd FILL
XFILL_0__3531_ gnd vdd FILL
X_2070_ _2958_/A _3173_/B _2242_/A _2347_/B vdd gnd OAI21X1
XFILL_0__3462_ gnd vdd FILL
XFILL_5__3107_ gnd vdd FILL
XFILL_3__3171_ gnd vdd FILL
XFILL_0__2413_ gnd vdd FILL
XFILL_0__3393_ gnd vdd FILL
XFILL_5__3038_ gnd vdd FILL
XFILL_3__2122_ gnd vdd FILL
X_2972_ _3260_/Q _3264_/Q _2973_/B vdd gnd NOR2X1
XFILL_0__2344_ gnd vdd FILL
XFILL_3__2053_ gnd vdd FILL
XFILL_0__2275_ gnd vdd FILL
X_1923_ _3219_/A _2700_/B _2527_/C vdd gnd NOR2X1
XFILL_8__1979_ gnd vdd FILL
XFILL184350x136650 gnd vdd FILL
XFILL_6__2802_ gnd vdd FILL
X_1854_ _1883_/A _1863_/B _1862_/B vdd gnd NOR2X1
XFILL_6__2733_ gnd vdd FILL
XFILL_3__2955_ gnd vdd FILL
X_1785_ _2221_/A _3156_/B _3192_/A _3194_/A vdd gnd OAI21X1
X_3524_ _3524_/A _3537_/C vdd gnd INVX1
XFILL_1__1970_ gnd vdd FILL
XFILL_6__2664_ gnd vdd FILL
XFILL_3__1906_ gnd vdd FILL
X_3455_ _3484_/B _3469_/B _3455_/C _3471_/A _3461_/A vdd gnd AOI22X1
XFILL_3__2886_ gnd vdd FILL
XFILL_6__2595_ gnd vdd FILL
XFILL_3__1837_ gnd vdd FILL
X_2406_ _2795_/A _2409_/C _2717_/C _2406_/D _2407_/C vdd gnd OAI22X1
X_3386_ _3514_/B _3387_/B _3514_/A _3387_/C vdd gnd OAI21X1
XFILL_3__1768_ gnd vdd FILL
XFILL_3__3507_ gnd vdd FILL
X_2337_ _2337_/A _2337_/B _2337_/C _3237_/D vdd gnd NAND3X1
XFILL_4__2300_ gnd vdd FILL
X_2268_ _2894_/A _2268_/B _2269_/B vdd gnd NOR2X1
XFILL_6__3216_ gnd vdd FILL
XFILL_4__2231_ gnd vdd FILL
XFILL_3__1699_ gnd vdd FILL
XFILL_1__2522_ gnd vdd FILL
XFILL_3__3438_ gnd vdd FILL
XFILL_1__2453_ gnd vdd FILL
XFILL_6__3147_ gnd vdd FILL
XFILL_4__2162_ gnd vdd FILL
XFILL_3__3369_ gnd vdd FILL
X_2199_ _2293_/A _2199_/B _2199_/C _2346_/A vdd gnd OAI21X1
XFILL_6__3078_ gnd vdd FILL
XFILL_1__2384_ gnd vdd FILL
XFILL_4__2093_ gnd vdd FILL
XFILL_7__2911_ gnd vdd FILL
XFILL_6__2029_ gnd vdd FILL
XFILL_7__2842_ gnd vdd FILL
XFILL_1__3005_ gnd vdd FILL
XFILL_7__2773_ gnd vdd FILL
XFILL_4__2995_ gnd vdd FILL
XFILL_7__1724_ gnd vdd FILL
XFILL_4__1946_ gnd vdd FILL
XFILL_4__1877_ gnd vdd FILL
XFILL_2__2700_ gnd vdd FILL
XFILL184650x70350 gnd vdd FILL
XFILL_4__3547_ gnd vdd FILL
XFILL_5__2340_ gnd vdd FILL
XFILL_2__2631_ gnd vdd FILL
XFILL_2__2562_ gnd vdd FILL
XFILL_4__3478_ gnd vdd FILL
XFILL_5__2271_ gnd vdd FILL
XFILL_7__2207_ gnd vdd FILL
XFILL_7__3187_ gnd vdd FILL
XFILL_2__2493_ gnd vdd FILL
XFILL_7__2138_ gnd vdd FILL
XFILL_4__2429_ gnd vdd FILL
XFILL_6_BUFX2_insert27 gnd vdd FILL
XFILL_6_BUFX2_insert16 gnd vdd FILL
XFILL_8__2951_ gnd vdd FILL
XFILL_6_BUFX2_insert49 gnd vdd FILL
XFILL_7__2069_ gnd vdd FILL
XFILL_2__3114_ gnd vdd FILL
XFILL_8__2882_ gnd vdd FILL
XFILL_8__1902_ gnd vdd FILL
XFILL_2__3045_ gnd vdd FILL
XFILL_8__1833_ gnd vdd FILL
XFILL_0__2060_ gnd vdd FILL
XFILL_8__1764_ gnd vdd FILL
XFILL_8__3503_ gnd vdd FILL
XFILL_5__1986_ gnd vdd FILL
XFILL_8__1695_ gnd vdd FILL
XFILL_8__3434_ gnd vdd FILL
XFILL_3__2740_ gnd vdd FILL
XFILL_0__2962_ gnd vdd FILL
XFILL_8__3365_ gnd vdd FILL
XFILL_5__2607_ gnd vdd FILL
XFILL_3__2671_ gnd vdd FILL
XFILL_2__2829_ gnd vdd FILL
XFILL_0__2893_ gnd vdd FILL
XFILL_5__3587_ gnd vdd FILL
XFILL_6__2380_ gnd vdd FILL
XFILL_8__2316_ gnd vdd FILL
X_3240_ _3240_/D vdd _3291_/R _3355_/CLK _3240_/Q vdd gnd DFFSR
XFILL_0__1913_ gnd vdd FILL
X_3171_ _3171_/A _3171_/B _3172_/A vdd gnd NOR2X1
XFILL_0__1844_ gnd vdd FILL
XFILL_8__2247_ gnd vdd FILL
XFILL_5__2538_ gnd vdd FILL
X_2122_ _2122_/A _2344_/B _2319_/A vdd gnd NAND2X1
XFILL_5__2469_ gnd vdd FILL
XFILL_0__1775_ gnd vdd FILL
XFILL_0__3514_ gnd vdd FILL
XFILL_6__3001_ gnd vdd FILL
XFILL_8__2178_ gnd vdd FILL
X_2053_ _3166_/C _3195_/B _2374_/C _2075_/A vdd gnd OAI21X1
XFILL_3__3223_ gnd vdd FILL
XFILL_0__3445_ gnd vdd FILL
XFILL_3__3154_ gnd vdd FILL
XFILL184350x148350 gnd vdd FILL
XFILL_0__3376_ gnd vdd FILL
XFILL_3__2105_ gnd vdd FILL
XFILL184050x156150 gnd vdd FILL
XFILL_0__2327_ gnd vdd FILL
XFILL_3__3085_ gnd vdd FILL
XFILL_3__2036_ gnd vdd FILL
X_2955_ reset _2957_/C _3306_/Q _2956_/C vdd gnd OAI21X1
XFILL_0__2258_ gnd vdd FILL
X_2886_ _2886_/A _2897_/C _2931_/B _2886_/D _3282_/D vdd gnd OAI22X1
X_1906_ _3174_/A _1910_/C vdd gnd INVX1
XFILL_0__2189_ gnd vdd FILL
XFILL_4__1800_ gnd vdd FILL
X_1837_ _1987_/A _3152_/C _3088_/S vdd gnd NAND2X1
XFILL_6__2716_ gnd vdd FILL
XFILL_4__2780_ gnd vdd FILL
X_3507_ _3555_/A _3554_/A vdd gnd INVX1
X_1768_ _3313_/Q _3007_/B _1769_/B vdd gnd NAND2X1
XFILL_3__2938_ gnd vdd FILL
XFILL_4__1731_ gnd vdd FILL
XFILL_6__2647_ gnd vdd FILL
XFILL_3__2869_ gnd vdd FILL
XFILL_1__1953_ gnd vdd FILL
X_1699_ _2768_/A DI[3] _1699_/C _2948_/A vdd gnd OAI21X1
XFILL_6__2578_ gnd vdd FILL
XFILL_4__3401_ gnd vdd FILL
X_3438_ _3438_/A _3449_/A vdd gnd INVX1
XFILL_1__1884_ gnd vdd FILL
XFILL_7__3110_ gnd vdd FILL
X_3369_ _3369_/A _3369_/B _3369_/Y vdd gnd NOR2X1
XFILL_7__3041_ gnd vdd FILL
XFILL_1__3554_ gnd vdd FILL
XFILL_1__3485_ gnd vdd FILL
XFILL_4__2214_ gnd vdd FILL
XFILL_1__2505_ gnd vdd FILL
XFILL_4__3194_ gnd vdd FILL
XFILL_4__2145_ gnd vdd FILL
XFILL_1__2436_ gnd vdd FILL
XFILL_1__2367_ gnd vdd FILL
XFILL184050x35250 gnd vdd FILL
XFILL_4__2076_ gnd vdd FILL
XFILL_1__2298_ gnd vdd FILL
XFILL_7__2825_ gnd vdd FILL
XFILL184650x82050 gnd vdd FILL
XFILL_7__2756_ gnd vdd FILL
XFILL_5__1840_ gnd vdd FILL
XFILL_4__2978_ gnd vdd FILL
XFILL_5__1771_ gnd vdd FILL
XFILL_7__1707_ gnd vdd FILL
XFILL_4__1929_ gnd vdd FILL
XFILL_5__3510_ gnd vdd FILL
XFILL_2__1993_ gnd vdd FILL
XFILL_7__2687_ gnd vdd FILL
XFILL_5__3441_ gnd vdd FILL
XFILL_8__3150_ gnd vdd FILL
XFILL_8__3081_ gnd vdd FILL
XFILL_5__3372_ gnd vdd FILL
XFILL_8__2101_ gnd vdd FILL
XFILL_2__2614_ gnd vdd FILL
XFILL_8__2032_ gnd vdd FILL
XFILL_5__2323_ gnd vdd FILL
XFILL_2__3594_ gnd vdd FILL
XFILL_5__2254_ gnd vdd FILL
XFILL_2__2545_ gnd vdd FILL
XFILL_2__2476_ gnd vdd FILL
XFILL_5__2185_ gnd vdd FILL
XFILL_8__2934_ gnd vdd FILL
XFILL_0__3230_ gnd vdd FILL
XFILL_0__3161_ gnd vdd FILL
XFILL_0__2112_ gnd vdd FILL
XFILL_8__2865_ gnd vdd FILL
XFILL_2__3028_ gnd vdd FILL
XFILL_6__1880_ gnd vdd FILL
XFILL_8__2796_ gnd vdd FILL
XFILL_0__3092_ gnd vdd FILL
XFILL_8__1816_ gnd vdd FILL
X_2740_ _2744_/B _2751_/B _2757_/A _2752_/A vdd gnd OAI21X1
XFILL_0__2043_ gnd vdd FILL
XFILL_8__1747_ gnd vdd FILL
X_2671_ _2676_/B _2671_/B _2686_/D _2674_/B vdd gnd OAI21X1
XFILL_6__3550_ gnd vdd FILL
XFILL_5__1969_ gnd vdd FILL
XFILL_6__2501_ gnd vdd FILL
XFILL_6__3481_ gnd vdd FILL
XFILL_8__3417_ gnd vdd FILL
XFILL_3__2723_ gnd vdd FILL
XFILL_2_BUFX2_insert25 gnd vdd FILL
XFILL_2_BUFX2_insert14 gnd vdd FILL
XFILL_2_BUFX2_insert58 gnd vdd FILL
XFILL_0__2945_ gnd vdd FILL
XFILL_2_BUFX2_insert47 gnd vdd FILL
XFILL_6__2432_ gnd vdd FILL
XFILL_2_BUFX2_insert69 gnd vdd FILL
XFILL_6__2363_ gnd vdd FILL
X_3223_ _3582_/A _3227_/B _3224_/C vdd gnd NAND2X1
XFILL_3__2654_ gnd vdd FILL
XFILL_0__2876_ gnd vdd FILL
XFILL_3__2585_ gnd vdd FILL
XFILL_0__1827_ gnd vdd FILL
X_3154_ _3154_/A _3154_/B _3196_/A vdd gnd NOR2X1
XFILL_6__2294_ gnd vdd FILL
X_3085_ _3568_/Q _3085_/B _3086_/A vdd gnd NOR2X1
XFILL_0__1758_ gnd vdd FILL
X_2105_ _2294_/A _2438_/A _2106_/C vdd gnd NAND2X1
X_2036_ _2890_/A _2864_/A _2922_/A vdd gnd NAND2X1
XFILL_0__1689_ gnd vdd FILL
XFILL_3__3206_ gnd vdd FILL
XFILL_0__3428_ gnd vdd FILL
XFILL_1__2221_ gnd vdd FILL
XFILL_3__3137_ gnd vdd FILL
XFILL_3__3068_ gnd vdd FILL
XFILL_1__2152_ gnd vdd FILL
XFILL_1__2083_ gnd vdd FILL
XFILL_4__2901_ gnd vdd FILL
XFILL_3__2019_ gnd vdd FILL
X_2938_ _2938_/A _3157_/C _3022_/A _2957_/C vdd gnd OAI21X1
XFILL_7__3590_ gnd vdd FILL
XFILL_7__2610_ gnd vdd FILL
XFILL_4__2832_ gnd vdd FILL
X_2869_ _3007_/C _2957_/B _2869_/C _3276_/D vdd gnd OAI21X1
XFILL_7__2541_ gnd vdd FILL
XFILL_4__2763_ gnd vdd FILL
XFILL_8_CLKBUF1_insert34 gnd vdd FILL
XFILL_1__2985_ gnd vdd FILL
XFILL_7__2472_ gnd vdd FILL
XFILL_4__1714_ gnd vdd FILL
XFILL_1__1936_ gnd vdd FILL
XFILL_4__2694_ gnd vdd FILL
XFILL_1__1867_ gnd vdd FILL
XFILL_1_BUFX2_insert0 gnd vdd FILL
XFILL_1__1798_ gnd vdd FILL
XFILL_1__3537_ gnd vdd FILL
XFILL_2__2330_ gnd vdd FILL
XFILL_7__3024_ gnd vdd FILL
XFILL_2__2261_ gnd vdd FILL
XFILL_1__3468_ gnd vdd FILL
XFILL_4__3177_ gnd vdd FILL
XFILL_1__3399_ gnd vdd FILL
XFILL_1__2419_ gnd vdd FILL
XFILL_4__2128_ gnd vdd FILL
XFILL_2__2192_ gnd vdd FILL
XFILL_5__2941_ gnd vdd FILL
XFILL_4__2059_ gnd vdd FILL
XFILL_8__2650_ gnd vdd FILL
XFILL_7__2808_ gnd vdd FILL
XFILL_5__2872_ gnd vdd FILL
XFILL_5__1823_ gnd vdd FILL
XFILL_8__2581_ gnd vdd FILL
XFILL_7__2739_ gnd vdd FILL
XFILL_5__1754_ gnd vdd FILL
XFILL_2__1976_ gnd vdd FILL
XFILL_9_BUFX2_insert53 gnd vdd FILL
XFILL_8__3202_ gnd vdd FILL
XFILL_8__3133_ gnd vdd FILL
XFILL_5__3424_ gnd vdd FILL
XFILL_0__2730_ gnd vdd FILL
XFILL_9_BUFX2_insert97 gnd vdd FILL
XFILL_3__2370_ gnd vdd FILL
XFILL_5__2306_ gnd vdd FILL
XFILL_8__3064_ gnd vdd FILL
XFILL_0__2661_ gnd vdd FILL
XFILL_8__2015_ gnd vdd FILL
XFILL_2__2528_ gnd vdd FILL
XFILL_0__2592_ gnd vdd FILL
XFILL_5__2237_ gnd vdd FILL
XFILL_5__2168_ gnd vdd FILL
XFILL_2__2459_ gnd vdd FILL
XFILL_8__2917_ gnd vdd FILL
XFILL_6__2981_ gnd vdd FILL
XFILL_0__3213_ gnd vdd FILL
XFILL_4_BUFX2_insert4 gnd vdd FILL
XFILL_5__2099_ gnd vdd FILL
XFILL_8__2848_ gnd vdd FILL
XFILL_6__1932_ gnd vdd FILL
XFILL_0__3144_ gnd vdd FILL
XFILL_0__3075_ gnd vdd FILL
XFILL_6__1863_ gnd vdd FILL
X_2723_ _2778_/A _2723_/B _2723_/C _3249_/D vdd gnd OAI21X1
XFILL_0__2026_ gnd vdd FILL
XFILL_6__3602_ gnd vdd FILL
XFILL_8__2779_ gnd vdd FILL
XFILL_6__1794_ gnd vdd FILL
X_2654_ _3243_/Q _2685_/B _2656_/A vdd gnd NAND2X1
XFILL_6__3533_ gnd vdd FILL
X_2585_ _3147_/C _2702_/B _3167_/B _2587_/A vdd gnd OAI21X1
XFILL_6__3464_ gnd vdd FILL
XFILL_6__2415_ gnd vdd FILL
XFILL_3__2706_ gnd vdd FILL
XFILL_1__2770_ gnd vdd FILL
XFILL_0__2928_ gnd vdd FILL
XFILL_6__3395_ gnd vdd FILL
XFILL_1__1721_ gnd vdd FILL
XFILL_3__2637_ gnd vdd FILL
XFILL_0__2859_ gnd vdd FILL
XFILL_6__2346_ gnd vdd FILL
X_3206_ _3214_/A _3214_/B _3351_/Q _3207_/C vdd gnd OAI21X1
XFILL_4__3100_ gnd vdd FILL
X_3137_ _3137_/A _3143_/B _3137_/C _3344_/D vdd gnd OAI21X1
XFILL_6__2277_ gnd vdd FILL
XFILL_3__2568_ gnd vdd FILL
XFILL_3__2499_ gnd vdd FILL
XFILL_4__3031_ gnd vdd FILL
X_3068_ _3568_/Q _3085_/B _3084_/B _3069_/A vdd gnd OAI21X1
X_2019_ _2161_/B _2889_/A _2889_/C _2845_/A vdd gnd OAI21X1
XFILL_1__2204_ gnd vdd FILL
XFILL_7__1972_ gnd vdd FILL
XFILL_1__3184_ gnd vdd FILL
XFILL_1__2135_ gnd vdd FILL
XFILL_1__2066_ gnd vdd FILL
XFILL_4__2815_ gnd vdd FILL
XFILL_7_BUFX2_insert8 gnd vdd FILL
XFILL_7__2524_ gnd vdd FILL
XFILL_2__1830_ gnd vdd FILL
XFILL_7__2455_ gnd vdd FILL
XFILL_4__2746_ gnd vdd FILL
XFILL_1__2968_ gnd vdd FILL
XFILL_2__1761_ gnd vdd FILL
XFILL_4__2677_ gnd vdd FILL
XFILL_1__2899_ gnd vdd FILL
XFILL_2__3500_ gnd vdd FILL
XFILL_1__1919_ gnd vdd FILL
XFILL_7__2386_ gnd vdd FILL
XFILL_2__1692_ gnd vdd FILL
XFILL_2__3431_ gnd vdd FILL
XFILL_5__3140_ gnd vdd FILL
XFILL_7__3007_ gnd vdd FILL
XFILL_5__3071_ gnd vdd FILL
XFILL_5__2022_ gnd vdd FILL
XFILL_2__2313_ gnd vdd FILL
XFILL_4__3229_ gnd vdd FILL
XFILL_2__2244_ gnd vdd FILL
XFILL_2__2175_ gnd vdd FILL
XFILL_8__2702_ gnd vdd FILL
XFILL_5__2924_ gnd vdd FILL
XFILL_8__2633_ gnd vdd FILL
XFILL_5__2855_ gnd vdd FILL
XFILL_8__2564_ gnd vdd FILL
XFILL_3__1870_ gnd vdd FILL
XFILL_5__2786_ gnd vdd FILL
XFILL_5__1806_ gnd vdd FILL
XFILL_8__2495_ gnd vdd FILL
XFILL_5__1737_ gnd vdd FILL
XFILL_2__1959_ gnd vdd FILL
X_2370_ _2861_/A _2579_/B _2370_/C _3514_/B vdd gnd OAI21X1
XFILL_3__3540_ gnd vdd FILL
XFILL_3__3471_ gnd vdd FILL
XFILL_5__3407_ gnd vdd FILL
XFILL_6__2200_ gnd vdd FILL
XFILL_8__3116_ gnd vdd FILL
XFILL_3__2422_ gnd vdd FILL
XFILL_0__2713_ gnd vdd FILL
XFILL_6__3180_ gnd vdd FILL
XFILL_8__3047_ gnd vdd FILL
XFILL_6__2131_ gnd vdd FILL
XFILL_0__2644_ gnd vdd FILL
XFILL_3__2353_ gnd vdd FILL
XFILL_6__2062_ gnd vdd FILL
XFILL_0__2575_ gnd vdd FILL
XFILL_3__2284_ gnd vdd FILL
XFILL_9__2811_ gnd vdd FILL
XFILL_5_BUFX2_insert51 gnd vdd FILL
XFILL_5_BUFX2_insert62 gnd vdd FILL
XFILL_6__2964_ gnd vdd FILL
XFILL_5_BUFX2_insert40 gnd vdd FILL
XFILL_5_BUFX2_insert95 gnd vdd FILL
XFILL_5_BUFX2_insert84 gnd vdd FILL
XFILL_5_BUFX2_insert73 gnd vdd FILL
XFILL_6__1915_ gnd vdd FILL
XFILL_0__3127_ gnd vdd FILL
XFILL_6__2895_ gnd vdd FILL
XFILL_0__3058_ gnd vdd FILL
X_2706_ _2706_/A _2706_/B _2706_/C _2711_/D vdd gnd AOI21X1
XFILL_6__1846_ gnd vdd FILL
XFILL_6__1777_ gnd vdd FILL
X_2637_ _3242_/Q _2685_/B _2638_/C vdd gnd NAND2X1
XFILL_0__2009_ gnd vdd FILL
XFILL_6__3516_ gnd vdd FILL
XFILL_3__1999_ gnd vdd FILL
XFILL_4__3580_ gnd vdd FILL
XFILL_4__2600_ gnd vdd FILL
XFILL_1__2822_ gnd vdd FILL
XFILL_4__2531_ gnd vdd FILL
X_2568_ _3577_/Q _2570_/A vdd gnd INVX1
XFILL_6__3447_ gnd vdd FILL
X_2499_ _2499_/A _2519_/C _2499_/C _3211_/B vdd gnd AOI21X1
XFILL_7__2240_ gnd vdd FILL
XFILL_1__2753_ gnd vdd FILL
XFILL_6__3378_ gnd vdd FILL
XFILL_7__2171_ gnd vdd FILL
XFILL_1__1704_ gnd vdd FILL
XFILL_4__2462_ gnd vdd FILL
XFILL_4__2393_ gnd vdd FILL
XFILL_6__2329_ gnd vdd FILL
XFILL_1__2684_ gnd vdd FILL
XFILL_4__3014_ gnd vdd FILL
XFILL_7__1955_ gnd vdd FILL
XFILL_1__3167_ gnd vdd FILL
XFILL_1__3098_ gnd vdd FILL
XFILL_1__2118_ gnd vdd FILL
XFILL_7__1886_ gnd vdd FILL
XFILL_2__2931_ gnd vdd FILL
XFILL_1__2049_ gnd vdd FILL
XFILL_7__3556_ gnd vdd FILL
XFILL_5__2640_ gnd vdd FILL
XFILL_2__2862_ gnd vdd FILL
XFILL_7__2507_ gnd vdd FILL
XFILL_5__2571_ gnd vdd FILL
XFILL_7__3487_ gnd vdd FILL
XFILL_2__2793_ gnd vdd FILL
XFILL_8__2280_ gnd vdd FILL
XFILL_4__2729_ gnd vdd FILL
XFILL_2__1813_ gnd vdd FILL
XFILL_2__1744_ gnd vdd FILL
XFILL_7__2438_ gnd vdd FILL
XFILL_7__2369_ gnd vdd FILL
XFILL_5__3123_ gnd vdd FILL
XFILL_2__3414_ gnd vdd FILL
XFILL_0__2360_ gnd vdd FILL
XFILL_5__3054_ gnd vdd FILL
XFILL_5__2005_ gnd vdd FILL
XFILL_0__2291_ gnd vdd FILL
XFILL_2__2227_ gnd vdd FILL
XFILL_8__1995_ gnd vdd FILL
X_1870_ _3286_/Q _2913_/A vdd gnd INVX1
XFILL_2__2158_ gnd vdd FILL
XFILL_2__2089_ gnd vdd FILL
XFILL_5__2907_ gnd vdd FILL
X_3540_ _3569_/Q _3553_/B _3541_/C vdd gnd NAND2X1
XFILL_6__1700_ gnd vdd FILL
XFILL_3__2971_ gnd vdd FILL
XFILL184650x7950 gnd vdd FILL
XFILL_6__2680_ gnd vdd FILL
XFILL_8__2616_ gnd vdd FILL
XFILL_5__2838_ gnd vdd FILL
XFILL_8__3596_ gnd vdd FILL
XFILL_3__1922_ gnd vdd FILL
X_3471_ _3471_/A _3471_/B _3521_/A _3472_/A vdd gnd AOI21X1
XFILL_3__1853_ gnd vdd FILL
XFILL_8__2547_ gnd vdd FILL
X_2422_ _2422_/A _2422_/B _2422_/C _3601_/A vdd gnd NAND3X1
XFILL_8__2478_ gnd vdd FILL
XFILL_5__2769_ gnd vdd FILL
XFILL_3__3523_ gnd vdd FILL
X_2353_ _2353_/A _2353_/B _3238_/D vdd gnd OR2X2
XFILL_3__1784_ gnd vdd FILL
XFILL_6__3232_ gnd vdd FILL
XFILL_3__3454_ gnd vdd FILL
X_2284_ _2284_/A _2332_/B _2285_/A vdd gnd AND2X2
XFILL_6__3163_ gnd vdd FILL
XFILL_3__3385_ gnd vdd FILL
XFILL_6__2114_ gnd vdd FILL
XFILL_3__2405_ gnd vdd FILL
XFILL_6__3094_ gnd vdd FILL
XFILL_3__2336_ gnd vdd FILL
XFILL_0__2627_ gnd vdd FILL
XBUFX2_insert1 _1773_/Y _2058_/B vdd gnd BUFX2
XFILL_6__2045_ gnd vdd FILL
XFILL_0__2558_ gnd vdd FILL
XFILL_3__2267_ gnd vdd FILL
XFILL_0__2489_ gnd vdd FILL
XFILL_3__2198_ gnd vdd FILL
XFILL_1__3021_ gnd vdd FILL
XFILL_6__2947_ gnd vdd FILL
XFILL_7__1740_ gnd vdd FILL
X_1999_ _2006_/A _3291_/D _1999_/C _2249_/A vdd gnd OAI21X1
XFILL_6__2878_ gnd vdd FILL
XFILL_4__1962_ gnd vdd FILL
XFILL_7__3410_ gnd vdd FILL
XFILL_6__1829_ gnd vdd FILL
XFILL_4__1893_ gnd vdd FILL
XFILL_1__2805_ gnd vdd FILL
XFILL_4__3563_ gnd vdd FILL
XFILL_4__3494_ gnd vdd FILL
XFILL_7__2223_ gnd vdd FILL
XFILL_4__2514_ gnd vdd FILL
XFILL_3_CLKBUF1_insert35 gnd vdd FILL
XFILL_1_BUFX2_insert60 gnd vdd FILL
XFILL_1__2736_ gnd vdd FILL
XFILL_4__2445_ gnd vdd FILL
XFILL_1_BUFX2_insert93 gnd vdd FILL
XFILL_1_BUFX2_insert82 gnd vdd FILL
XFILL_7__2154_ gnd vdd FILL
XFILL_1__2667_ gnd vdd FILL
XFILL_1_BUFX2_insert71 gnd vdd FILL
XFILL_7__2085_ gnd vdd FILL
XFILL_4__2376_ gnd vdd FILL
XFILL_2__3130_ gnd vdd FILL
XFILL_1__2598_ gnd vdd FILL
XFILL_2__3061_ gnd vdd FILL
XFILL_2__2012_ gnd vdd FILL
XFILL_7__2987_ gnd vdd FILL
XFILL_8__1780_ gnd vdd FILL
XFILL_1__3219_ gnd vdd FILL
XFILL_7__1938_ gnd vdd FILL
XFILL_8__3450_ gnd vdd FILL
XFILL_7__1869_ gnd vdd FILL
XFILL_8__2401_ gnd vdd FILL
XFILL_2__2914_ gnd vdd FILL
XFILL_8__3381_ gnd vdd FILL
XFILL_5__2623_ gnd vdd FILL
XFILL_2__2845_ gnd vdd FILL
XFILL_7__3539_ gnd vdd FILL
XFILL_8__2332_ gnd vdd FILL
XFILL_0__1860_ gnd vdd FILL
XFILL_8__2263_ gnd vdd FILL
XFILL_5__2554_ gnd vdd FILL
XFILL_5__2485_ gnd vdd FILL
XFILL_2__2776_ gnd vdd FILL
XFILL_8__2194_ gnd vdd FILL
XFILL_0__1791_ gnd vdd FILL
XFILL_2__1727_ gnd vdd FILL
XFILL_0__3530_ gnd vdd FILL
XFILL_0__3461_ gnd vdd FILL
XFILL_5__3106_ gnd vdd FILL
XFILL_0__2412_ gnd vdd FILL
XFILL_3__3170_ gnd vdd FILL
XFILL_0__3392_ gnd vdd FILL
XFILL_5__3037_ gnd vdd FILL
XFILL_3__2121_ gnd vdd FILL
X_2971_ _2971_/A _2971_/B _2971_/C _3308_/D vdd gnd OAI21X1
XFILL_0__2343_ gnd vdd FILL
XFILL_3__2052_ gnd vdd FILL
XFILL_8__1978_ gnd vdd FILL
XFILL_0__2274_ gnd vdd FILL
X_1922_ _3357_/Q _3219_/A vdd gnd INVX1
XFILL_6__2801_ gnd vdd FILL
X_1853_ _3151_/C _3182_/B _3178_/B _1863_/B vdd gnd OAI21X1
XFILL_6__2732_ gnd vdd FILL
XFILL_3__2954_ gnd vdd FILL
X_1784_ _3190_/B _3156_/B vdd gnd INVX2
X_3523_ _3523_/A _3523_/B _3562_/B vdd gnd XOR2X1
XFILL_8__3579_ gnd vdd FILL
XFILL_3__1905_ gnd vdd FILL
XFILL_6__2663_ gnd vdd FILL
X_3454_ _3468_/A _3521_/B _3469_/B vdd gnd NAND2X1
XFILL_3__2885_ gnd vdd FILL
XFILL_6__2594_ gnd vdd FILL
X_2405_ _2423_/A _2416_/A vdd gnd INVX1
XFILL_3__1836_ gnd vdd FILL
X_3385_ _3442_/B _3514_/A vdd gnd INVX4
XFILL_3__1767_ gnd vdd FILL
XFILL_3__3506_ gnd vdd FILL
X_2336_ _2336_/A _2336_/B _2337_/B vdd gnd NOR2X1
XFILL_0__1989_ gnd vdd FILL
XFILL_6__3215_ gnd vdd FILL
X_2267_ _2843_/C _2911_/A _2269_/A vdd gnd NAND2X1
XFILL_3__3437_ gnd vdd FILL
XFILL_1__2521_ gnd vdd FILL
XFILL_4__2230_ gnd vdd FILL
XFILL_3__1698_ gnd vdd FILL
XFILL_1__2452_ gnd vdd FILL
XFILL_6__3146_ gnd vdd FILL
XFILL_4__2161_ gnd vdd FILL
XFILL_6__3077_ gnd vdd FILL
XFILL_3__3368_ gnd vdd FILL
X_2198_ _2293_/A _3160_/A _3151_/A _2199_/C vdd gnd NAND3X1
XFILL_6__2028_ gnd vdd FILL
XFILL_1__2383_ gnd vdd FILL
XFILL_3__2319_ gnd vdd FILL
XFILL_4__2092_ gnd vdd FILL
XFILL_7__2910_ gnd vdd FILL
XFILL_7__2841_ gnd vdd FILL
XFILL_1__3004_ gnd vdd FILL
XFILL_7__2772_ gnd vdd FILL
XFILL_4__2994_ gnd vdd FILL
XFILL_9__2708_ gnd vdd FILL
XFILL_7__1723_ gnd vdd FILL
XFILL_4__1945_ gnd vdd FILL
XFILL_4__1876_ gnd vdd FILL
XFILL_4__3546_ gnd vdd FILL
XFILL_2__2630_ gnd vdd FILL