* NGSPICE file created from apple_1_WozMon_PIA.ext - technology: scmos

.subckt DFFPOSX1 D CLK Q vdd gnd
M1000 vdd Q a_189_206# vdd pfet w=3u l=0.6u
+  ad=10.125p pd=14.7u as=0.9p ps=3.6u
M1001 a_83_186# a_11_14# a_59_14# vdd pfet w=6u l=0.6u
+  ad=3.6p pd=7.2u as=7.2p ps=8.4u
M1002 a_87_10# a_59_14# gnd gnd nfet w=3u l=0.6u
+  ad=6.3p pd=10.2u as=4.05p ps=5.7u
M1003 gnd CLK a_11_14# gnd nfet w=6u l=0.6u
+  ad=5.85p pd=8.4u as=12.6p ps=16.2u
M1004 gnd a_87_10# a_81_14# gnd nfet w=3u l=0.6u
+  ad=4.05p pd=5.7u as=1.35p ps=3.9u
M1005 a_159_14# a_87_10# gnd gnd nfet w=3u l=0.6u
+  ad=0.9p pd=3.6u as=6.3p ps=10.2u
M1006 a_49_186# D vdd vdd pfet w=6u l=0.6u
+  ad=4.5p pd=7.5u as=11.25p ps=14.4u
M1007 vdd a_87_10# a_83_186# vdd pfet w=6u l=0.6u
+  ad=7.2p pd=8.4u as=3.6p ps=7.2u
M1008 Q a_167_14# gnd gnd nfet w=6u l=0.6u
+  ad=12.6p pd=16.2u as=6.975p ps=8.7u
M1009 Q a_167_14# vdd vdd pfet w=12u l=0.6u
+  ad=25.2p pd=28.2u as=10.125p ps=14.7u
M1010 a_167_14# CLK a_159_14# gnd nfet w=3u l=0.6u
+  ad=3.6p pd=5.4u as=0.9p ps=3.6u
M1011 a_49_14# D gnd gnd nfet w=3u l=0.6u
+  ad=1.35p pd=3.9u as=5.85p ps=8.4u
M1012 a_87_10# a_59_14# vdd vdd pfet w=6u l=0.6u
+  ad=12.6p pd=16.2u as=7.2p ps=8.4u
M1013 a_59_14# CLK a_49_186# vdd pfet w=6u l=0.6u
+  ad=7.2p pd=8.4u as=4.5p ps=7.5u
M1014 a_161_186# a_87_10# vdd vdd pfet w=6u l=0.6u
+  ad=1.8p pd=6.6u as=12.6p ps=16.2u
M1015 a_189_206# CLK a_167_14# vdd pfet w=3u l=0.6u
+  ad=0.9p pd=3.6u as=6.075p ps=8.4u
M1016 a_59_14# a_11_14# a_49_14# gnd nfet w=3u l=0.6u
+  ad=4.05p pd=5.7u as=1.35p ps=3.9u
M1017 a_187_14# a_11_14# a_167_14# gnd nfet w=3u l=0.6u
+  ad=1.35p pd=3.9u as=3.6p ps=5.4u
M1018 vdd CLK a_11_14# vdd pfet w=12u l=0.6u
+  ad=11.25p pd=14.4u as=25.2p ps=28.2u
M1019 gnd Q a_187_14# gnd nfet w=3u l=0.6u
+  ad=6.975p pd=8.7u as=1.35p ps=3.9u
M1020 a_167_14# a_11_14# a_161_186# vdd pfet w=6u l=0.6u
+  ad=6.075p pd=8.4u as=1.8p ps=6.6u
M1021 a_81_14# CLK a_59_14# gnd nfet w=3u l=0.6u
+  ad=1.35p pd=3.9u as=4.05p ps=5.7u
.ends

.subckt DFFSR R S D CLK Q vdd gnd
M1000 a_146_14# a_122_10# a_60_10# vdd pfet w=3u l=0.6u
+  ad=6.3p pd=8.4u as=3.6p ps=5.4u
M1001 a_64_14# a_60_10# gnd gnd nfet w=6u l=0.6u
+  ad=3.6p pd=7.2u as=9p ps=9u
M1002 vdd S a_301_14# vdd pfet w=6u l=0.6u
+  ad=12.6p pd=16.2u as=7.2p ps=8.4u
M1003 a_146_14# a_115_95# a_60_10# gnd nfet w=3u l=0.6u
+  ad=3.6p pd=5.4u as=3.6p ps=5.4u
M1004 a_36_10# a_60_10# vdd vdd pfet w=6u l=0.6u
+  ad=7.2p pd=8.4u as=7.2p ps=8.4u
M1005 a_391_14# a_334_14# gnd gnd nfet w=6u l=0.6u
+  ad=3.6p pd=7.2u as=9.45p ps=9.15u
M1006 a_8_14# R vdd vdd pfet w=6u l=0.6u
+  ad=7.2p pd=8.4u as=12.6p ps=16.2u
M1007 a_36_10# S a_64_14# gnd nfet w=6u l=0.6u
+  ad=14.4p pd=16.8u as=3.6p ps=7.2u
M1008 gnd a_334_14# Q gnd nfet w=3u l=0.6u
+  ad=6.3p pd=10.2u as=6.3p ps=10.2u
M1009 a_281_14# a_122_10# a_36_10# gnd nfet w=3u l=0.6u
+  ad=3.6p pd=5.4u as=6.3p ps=10.2u
M1010 a_28_14# R a_8_14# gnd nfet w=6u l=0.6u
+  ad=3.6p pd=7.2u as=14.4p ps=16.8u
M1011 a_301_14# S a_391_14# gnd nfet w=6u l=0.6u
+  ad=14.4p pd=16.8u as=3.6p ps=7.2u
M1012 gnd a_36_10# a_28_14# gnd nfet w=6u l=0.6u
+  ad=9p pd=9u as=3.6p ps=7.2u
M1013 gnd a_115_95# a_122_10# gnd nfet w=3u l=0.6u
+  ad=3.6p pd=5.4u as=6.3p ps=10.2u
M1014 a_301_14# a_334_14# vdd vdd pfet w=6u l=0.6u
+  ad=7.2p pd=8.4u as=7.2p ps=8.4u
M1015 vdd D a_146_14# vdd pfet w=6u l=0.6u
+  ad=12.6p pd=16.2u as=6.3p ps=8.4u
M1016 a_334_14# a_281_14# vdd vdd pfet w=6u l=0.6u
+  ad=7.2p pd=8.4u as=12.6p ps=16.2u
M1017 vdd a_115_95# a_122_10# vdd pfet w=6u l=0.6u
+  ad=7.2p pd=8.4u as=12.6p ps=16.2u
M1018 a_301_14# a_122_10# a_281_14# vdd pfet w=3u l=0.6u
+  ad=6.3p pd=10.2u as=3.6p ps=5.4u
M1019 gnd D a_146_14# gnd nfet w=3u l=0.6u
+  ad=6.3p pd=10.2u as=3.6p ps=5.4u
M1020 a_60_10# a_115_95# a_8_14# vdd pfet w=3u l=0.6u
+  ad=3.6p pd=5.4u as=6.3p ps=10.2u
M1021 a_301_14# a_115_95# a_281_14# gnd nfet w=3u l=0.6u
+  ad=6.3p pd=10.2u as=3.6p ps=5.4u
M1022 vdd S a_36_10# vdd pfet w=6u l=0.6u
+  ad=12.6p pd=16.2u as=7.2p ps=8.4u
M1023 vdd a_36_10# a_8_14# vdd pfet w=6u l=0.6u
+  ad=7.2p pd=8.4u as=7.2p ps=8.4u
M1024 a_115_95# CLK gnd gnd nfet w=3u l=0.6u
+  ad=6.3p pd=10.2u as=3.6p ps=5.4u
M1025 a_60_10# a_122_10# a_8_14# gnd nfet w=3u l=0.6u
+  ad=3.6p pd=5.4u as=6.3p ps=10.2u
M1026 a_354_14# a_281_14# a_334_14# gnd nfet w=6u l=0.6u
+  ad=3.6p pd=7.2u as=14.4p ps=16.8u
M1027 vdd R a_334_14# vdd pfet w=6u l=0.6u
+  ad=7.2p pd=8.4u as=7.2p ps=8.4u
M1028 a_115_95# CLK vdd vdd pfet w=6u l=0.6u
+  ad=12.6p pd=16.2u as=7.2p ps=8.4u
M1029 a_281_14# a_115_95# a_36_10# vdd pfet w=3u l=0.6u
+  ad=3.6p pd=5.4u as=6.3p ps=10.2u
M1030 gnd R a_354_14# gnd nfet w=6u l=0.6u
+  ad=9.45p pd=9.15u as=3.6p ps=7.2u
M1031 vdd a_334_14# Q vdd pfet w=6u l=0.6u
+  ad=12.6p pd=16.2u as=12.6p ps=16.2u
.ends

.subckt OAI21X1 A B C Y vdd gnd
M1000 Y C a_7_14# gnd nfet w=6u l=0.6u
+  ad=12.6p pd=16.2u as=7.2p ps=8.4u
M1001 a_30_146# A vdd vdd pfet w=12u l=0.6u
+  ad=3.6p pd=12.6u as=25.2p ps=28.2u
M1002 vdd C Y vdd pfet w=6u l=0.6u
+  ad=12.6p pd=16.2u as=14.4p ps=14.7u
M1003 gnd A a_7_14# gnd nfet w=6u l=0.6u
+  ad=7.2p pd=8.4u as=12.6p ps=16.2u
M1004 Y B a_30_146# vdd pfet w=12u l=0.6u
+  ad=14.4p pd=14.7u as=3.6p ps=12.6u
M1005 a_7_14# B gnd gnd nfet w=6u l=0.6u
+  ad=7.2p pd=8.4u as=7.2p ps=8.4u
.ends

.subckt NOR2X1 A B Y vdd gnd
M1000 a_25_146# A vdd vdd pfet w=12u l=0.6u
+  ad=3.6p pd=12.6u as=25.2p ps=28.2u
M1001 Y A gnd gnd nfet w=3u l=0.6u
+  ad=3.6p pd=5.4u as=6.3p ps=10.2u
M1002 Y B a_25_146# vdd pfet w=12u l=0.6u
+  ad=25.2p pd=28.2u as=3.6p ps=12.6u
M1003 gnd B Y gnd nfet w=3u l=0.6u
+  ad=6.3p pd=10.2u as=3.6p ps=5.4u
.ends

.subckt NAND2X1 A B Y vdd gnd
M1000 a_27_14# A gnd gnd nfet w=6u l=0.6u
+  ad=2.7p pd=6.9u as=12.6p ps=16.2u
M1001 Y B a_27_14# gnd nfet w=6u l=0.6u
+  ad=12.6p pd=16.2u as=2.7p ps=6.9u
M1002 vdd B Y vdd pfet w=6u l=0.6u
+  ad=12.6p pd=16.2u as=7.2p ps=8.4u
M1003 Y A vdd vdd pfet w=6u l=0.6u
+  ad=7.2p pd=8.4u as=12.6p ps=16.2u
.ends

.subckt INVX1 A Y vdd gnd
M1000 Y A gnd gnd nfet w=3u l=0.6u
+  ad=6.3p pd=10.2u as=6.3p ps=10.2u
M1001 Y A vdd vdd pfet w=6u l=0.6u
+  ad=12.6p pd=16.2u as=12.6p ps=16.2u
.ends

.subckt NAND3X1 A B C Y vdd gnd
M1000 Y C a_34_14# gnd nfet w=9u l=0.6u
+  ad=18.9p pd=22.2u as=2.7p ps=9.6u
M1001 a_26_14# A gnd gnd nfet w=9u l=0.6u
+  ad=2.7p pd=9.6u as=18.9p ps=22.2u
M1002 vdd B Y vdd pfet w=6u l=0.6u
+  ad=7.2p pd=8.4u as=7.2p ps=8.4u
M1003 a_34_14# B a_26_14# gnd nfet w=9u l=0.6u
+  ad=2.7p pd=9.6u as=2.7p ps=9.6u
M1004 Y C vdd vdd pfet w=6u l=0.6u
+  ad=12.6p pd=16.2u as=7.2p ps=8.4u
M1005 Y A vdd vdd pfet w=6u l=0.6u
+  ad=7.2p pd=8.4u as=12.6p ps=16.2u
.ends

.subckt AOI21X1 A B C Y vdd gnd
M1000 vdd A a_7_146# vdd pfet w=12u l=0.6u
+  ad=14.4p pd=14.4u as=25.2p ps=28.2u
M1001 Y C a_7_146# vdd pfet w=12u l=0.6u
+  ad=25.2p pd=28.2u as=14.4p ps=14.4u
M1002 a_28_14# A gnd gnd nfet w=6u l=0.6u
+  ad=1.8p pd=6.6u as=12.6p ps=16.2u
M1003 Y B a_28_14# gnd nfet w=6u l=0.6u
+  ad=7.2p pd=8.7u as=1.8p ps=6.6u
M1004 a_7_146# B vdd vdd pfet w=12u l=0.6u
+  ad=14.4p pd=14.4u as=14.4p ps=14.4u
M1005 gnd C Y gnd nfet w=3u l=0.6u
+  ad=6.3p pd=10.2u as=7.2p ps=8.7u
.ends

.subckt INVX2 A Y vdd gnd
M1000 Y A vdd vdd pfet w=12u l=0.6u
+  ad=25.2p pd=28.2u as=25.2p ps=28.2u
M1001 Y A gnd gnd nfet w=6u l=0.6u
+  ad=12.6p pd=16.2u as=12.6p ps=16.2u
.ends

.subckt BUFX2 A Y vdd gnd
M1000 Y a_7_14# vdd vdd pfet w=12u l=0.6u
+  ad=25.2p pd=28.2u as=14.4p ps=14.7u
M1001 gnd A a_7_14# gnd nfet w=3u l=0.6u
+  ad=7.2p pd=8.7u as=6.3p ps=10.2u
M1002 Y a_7_14# gnd gnd nfet w=6u l=0.6u
+  ad=12.6p pd=16.2u as=7.2p ps=8.7u
M1003 vdd A a_7_14# vdd pfet w=6u l=0.6u
+  ad=14.4p pd=14.7u as=12.6p ps=16.2u
.ends

.subckt AND2X2 A B Y vdd gnd
M1000 a_25_14# A a_7_14# gnd nfet w=6u l=0.6u
+  ad=2.7p pd=6.9u as=12.6p ps=16.2u
M1001 gnd B a_25_14# gnd nfet w=6u l=0.6u
+  ad=7.2p pd=8.4u as=2.7p ps=6.9u
M1002 vdd B a_7_14# vdd pfet w=6u l=0.6u
+  ad=14.4p pd=14.7u as=8.1p ps=8.7u
M1003 Y a_7_14# gnd gnd nfet w=6u l=0.6u
+  ad=12.6p pd=16.2u as=7.2p ps=8.4u
M1004 Y a_7_14# vdd vdd pfet w=12u l=0.6u
+  ad=25.2p pd=28.2u as=14.4p ps=14.7u
M1005 a_7_14# A vdd vdd pfet w=6u l=0.6u
+  ad=8.1p pd=8.7u as=12.6p ps=16.2u
.ends

.subckt AOI22X1 A B C D Y vdd gnd
M1000 gnd C a_56_14# gnd nfet w=6u l=0.6u
+  ad=12.6p pd=16.2u as=1.8p ps=6.6u
M1001 vdd A a_7_146# vdd pfet w=12u l=0.6u
+  ad=14.4p pd=14.4u as=25.2p ps=28.2u
M1002 Y D a_7_146# vdd pfet w=12u l=0.6u
+  ad=14.4p pd=14.4u as=14.4p ps=14.4u
M1003 a_28_14# A gnd gnd nfet w=6u l=0.6u
+  ad=1.8p pd=6.6u as=12.6p ps=16.2u
M1004 Y B a_28_14# gnd nfet w=6u l=0.6u
+  ad=7.2p pd=8.4u as=1.8p ps=6.6u
M1005 a_7_146# C Y vdd pfet w=12u l=0.6u
+  ad=25.2p pd=28.2u as=14.4p ps=14.4u
M1006 a_7_146# B vdd vdd pfet w=12u l=0.6u
+  ad=14.4p pd=14.4u as=14.4p ps=14.4u
M1007 a_56_14# D Y gnd nfet w=6u l=0.6u
+  ad=1.8p pd=6.6u as=7.2p ps=8.4u
.ends

.subckt NOR3X1 A B C Y vdd gnd
M1000 gnd B Y gnd nfet w=3u l=0.6u
+  ad=3.6p pd=5.4u as=3.6p ps=5.4u
M1001 a_7_166# A vdd vdd pfet w=9u l=0.6u
+  ad=10.8p pd=11.4u as=10.8p ps=11.4u
M1002 a_7_166# B a_65_166# vdd pfet w=9u l=0.6u
+  ad=18.9p pd=22.2u as=10.8p ps=11.4u
M1003 a_65_166# C Y vdd pfet w=9u l=0.6u
+  ad=18.9p pd=22.2u as=10.8p ps=11.4u
M1004 Y C gnd gnd nfet w=3u l=0.6u
+  ad=6.3p pd=10.2u as=3.6p ps=5.4u
M1005 a_65_166# B a_7_166# vdd pfet w=9u l=0.6u
+  ad=10.8p pd=11.4u as=10.8p ps=11.4u
M1006 vdd A a_7_166# vdd pfet w=9u l=0.6u
+  ad=10.8p pd=11.4u as=18.9p ps=22.2u
M1007 Y C a_65_166# vdd pfet w=9u l=0.6u
+  ad=10.8p pd=11.4u as=18.9p ps=22.2u
M1008 Y A gnd gnd nfet w=3u l=0.6u
+  ad=3.6p pd=5.4u as=7.2p ps=10.8u
.ends

.subckt INVX8 A Y vdd gnd
M1000 Y A gnd gnd nfet w=6u l=0.6u
+  ad=7.2p pd=8.4u as=7.2p ps=8.4u
M1001 Y A vdd vdd pfet w=12u l=0.6u
+  ad=14.4p pd=14.4u as=25.2p ps=28.2u
M1002 Y A vdd vdd pfet w=12u l=0.6u
+  ad=14.4p pd=14.4u as=14.4p ps=14.4u
M1003 Y A gnd gnd nfet w=6u l=0.6u
+  ad=7.2p pd=8.4u as=12.6p ps=16.2u
M1004 gnd A Y gnd nfet w=6u l=0.6u
+  ad=12.6p pd=16.2u as=7.2p ps=8.4u
M1005 vdd A Y vdd pfet w=12u l=0.6u
+  ad=25.2p pd=28.2u as=14.4p ps=14.4u
M1006 gnd A Y gnd nfet w=6u l=0.6u
+  ad=7.2p pd=8.4u as=7.2p ps=8.4u
M1007 vdd A Y vdd pfet w=12u l=0.6u
+  ad=14.4p pd=14.4u as=14.4p ps=14.4u
.ends

.subckt CLKBUF1 A Y vdd gnd
M1000 Y a_105_14# vdd vdd pfet w=12u l=0.6u
+  ad=14.4p pd=14.4u as=14.4p ps=14.4u
M1001 a_65_14# a_25_14# gnd gnd nfet w=6u l=0.6u
+  ad=7.2p pd=8.4u as=7.2p ps=8.4u
M1002 a_105_14# a_65_14# vdd vdd pfet w=12u l=0.6u
+  ad=14.4p pd=14.4u as=14.4p ps=14.4u
M1003 Y a_105_14# gnd gnd nfet w=6u l=0.6u
+  ad=7.2p pd=8.4u as=7.2p ps=8.4u
M1004 a_25_14# A vdd vdd pfet w=12u l=0.6u
+  ad=14.4p pd=14.4u as=25.2p ps=28.2u
M1005 a_65_14# a_25_14# vdd vdd pfet w=12u l=0.6u
+  ad=14.4p pd=14.4u as=14.4p ps=14.4u
M1006 a_25_14# A gnd gnd nfet w=6u l=0.6u
+  ad=7.2p pd=8.4u as=12.6p ps=16.2u
M1007 gnd a_25_14# a_65_14# gnd nfet w=6u l=0.6u
+  ad=7.2p pd=8.4u as=7.2p ps=8.4u
M1008 a_105_14# a_65_14# gnd gnd nfet w=6u l=0.6u
+  ad=7.2p pd=8.4u as=7.2p ps=8.4u
M1009 gnd a_105_14# Y gnd nfet w=6u l=0.6u
+  ad=12.6p pd=16.2u as=7.2p ps=8.4u
M1010 vdd a_65_14# a_105_14# vdd pfet w=12u l=0.6u
+  ad=14.4p pd=14.4u as=14.4p ps=14.4u
M1011 vdd a_105_14# Y vdd pfet w=12u l=0.6u
+  ad=25.2p pd=28.2u as=14.4p ps=14.4u
M1012 vdd a_25_14# a_65_14# vdd pfet w=12u l=0.6u
+  ad=14.4p pd=14.4u as=14.4p ps=14.4u
M1013 gnd A a_25_14# gnd nfet w=6u l=0.6u
+  ad=7.2p pd=8.4u as=7.2p ps=8.4u
M1014 vdd A a_25_14# vdd pfet w=12u l=0.6u
+  ad=14.4p pd=14.4u as=14.4p ps=14.4u
M1015 gnd a_65_14# a_105_14# gnd nfet w=6u l=0.6u
+  ad=7.2p pd=8.4u as=7.2p ps=8.4u
.ends

.subckt OAI22X1 A B C D Y vdd gnd
M1000 Y D a_7_14# gnd nfet w=6u l=0.6u
+  ad=7.2p pd=8.4u as=7.2p ps=8.4u
M1001 a_25_146# A vdd vdd pfet w=12u l=0.6u
+  ad=5.4p pd=12.9u as=25.2p ps=28.2u
M1002 a_65_146# D Y vdd pfet w=12u l=0.6u
+  ad=5.4p pd=12.9u as=23.4p ps=15.9u
M1003 gnd A a_7_14# gnd nfet w=6u l=0.6u
+  ad=7.2p pd=8.4u as=12.6p ps=16.2u
M1004 a_7_14# C Y gnd nfet w=6u l=0.6u
+  ad=12.6p pd=16.2u as=7.2p ps=8.4u
M1005 a_7_14# B gnd gnd nfet w=6u l=0.6u
+  ad=7.2p pd=8.4u as=7.2p ps=8.4u
M1006 Y B a_25_146# vdd pfet w=12u l=0.6u
+  ad=23.4p pd=15.9u as=5.4p ps=12.9u
M1007 vdd C a_65_146# vdd pfet w=12u l=0.6u
+  ad=25.2p pd=28.2u as=5.4p ps=12.9u
.ends

.subckt OR2X2 A B Y vdd gnd
M1000 Y a_7_146# gnd gnd nfet w=6u l=0.6u
+  ad=12.6p pd=16.2u as=6.3p ps=8.4u
M1001 a_25_146# A a_7_146# vdd pfet w=12u l=0.6u
+  ad=5.4p pd=12.9u as=25.2p ps=28.2u
M1002 a_7_146# A gnd gnd nfet w=3u l=0.6u
+  ad=3.6p pd=5.4u as=6.3p ps=10.2u
M1003 Y a_7_146# vdd vdd pfet w=12u l=0.6u
+  ad=25.2p pd=28.2u as=14.4p ps=14.4u
M1004 gnd B a_7_146# gnd nfet w=3u l=0.6u
+  ad=6.3p pd=8.4u as=3.6p ps=5.4u
M1005 vdd B a_25_146# vdd pfet w=12u l=0.6u
+  ad=14.4p pd=14.4u as=5.4p ps=12.9u
.ends

.subckt INVX4 A Y vdd gnd
M1000 Y A vdd vdd pfet w=12u l=0.6u
+  ad=14.4p pd=14.4u as=25.2p ps=28.2u
M1001 Y A gnd gnd nfet w=6u l=0.6u
+  ad=7.2p pd=8.4u as=12.6p ps=16.2u
M1002 gnd A Y gnd nfet w=6u l=0.6u
+  ad=12.6p pd=16.2u as=7.2p ps=8.4u
M1003 vdd A Y vdd pfet w=12u l=0.6u
+  ad=25.2p pd=28.2u as=14.4p ps=14.4u
.ends

.subckt MUX2X1 A B S Y vdd gnd
M1000 a_75_22# S Y gnd nfet w=6u l=0.6u
+  ad=2.7p pd=6.9u as=7.2p ps=8.4u
M1001 gnd S a_7_22# gnd nfet w=3u l=0.6u
+  ad=6.3p pd=8.4u as=6.3p ps=10.2u
M1002 Y S a_45_138# vdd pfet w=12u l=0.6u
+  ad=14.49p pd=15.6u as=5.4p ps=12.9u
M1003 gnd A a_75_22# gnd nfet w=6u l=0.6u
+  ad=12.6p pd=16.2u as=2.7p ps=6.9u
M1004 vdd A a_75_146# vdd pfet w=12u l=0.6u
+  ad=25.2p pd=28.2u as=5.4p ps=12.9u
M1005 a_45_138# B vdd vdd pfet w=12u l=0.6u
+  ad=5.4p pd=12.9u as=11.7p ps=14.4u
M1006 a_45_22# B gnd gnd nfet w=6u l=0.6u
+  ad=2.7p pd=6.9u as=6.3p ps=8.4u
M1007 Y a_7_22# a_45_22# gnd nfet w=6u l=0.6u
+  ad=7.2p pd=8.4u as=2.7p ps=6.9u
M1008 a_75_146# a_7_22# Y vdd pfet w=12u l=0.6u
+  ad=5.4p pd=12.9u as=14.49p ps=15.6u
M1009 vdd S a_7_22# vdd pfet w=6u l=0.6u
+  ad=11.7p pd=14.4u as=12.6p ps=16.2u
.ends

.subckt apple_1_WozMon_PIA gnd vdd clk reset AB[15] AB[14] AB[13] AB[12] AB[11] AB[10]
+ AB[9] AB[8] AB[7] AB[6] AB[5] AB[4] AB[3] AB[2] AB[1] AB[0] DI[7] DI[6] DI[5] DI[4]
+ DI[3] DI[2] DI[1] DI[0] DO[7] DO[6] DO[5] DO[4] DO[3] DO[2] DO[1] DO[0] WE IRQ NMI
+ RDY kbd_rdy kbd_ack kbd_data[6] kbd_data[5] kbd_data[4] kbd_data[3] kbd_data[2]
+ kbd_data[1] kbd_data[0] dsp_rdy dsp_ack dsp_data[6] dsp_data[5] dsp_data[4] dsp_data[3]
+ dsp_data[2] dsp_data[1] dsp_data[0]
X_3155_ _3284_/Y _4880_/CLK _4387_/A vdd gnd DFFPOSX1
X_3086_ _3154_/R vdd _3888_/Y _3161_/CLK _4298_/A vdd gnd DFFSR
X_3988_ _4002_/Y _3989_/C _3989_/Y _3988_/Y vdd gnd OAI21X1
X_2939_ _3259_/B _4004_/B _2939_/Y vdd gnd NOR2X1
X_4609_ _4626_/A _4610_/Y _4609_/Y vdd gnd NAND2X1
X_4960_ DI[1] _4961_/A vdd gnd INVX1
X_3911_ _4132_/A _4524_/Y _3945_/Y _3911_/Y vdd gnd OAI21X1
X_4891_ _4891_/A _4916_/A _4891_/C _4900_/B vdd gnd NAND3X1
X_3842_ _4107_/Y _3843_/Y _3842_/Y vdd gnd NOR2X1
X_3773_ _4132_/A _4104_/Y _3774_/Y _3773_/Y vdd gnd OAI21X1
X_2724_ _2750_/C _2728_/Y _2725_/Y _2724_/Y vdd gnd NAND3X1
X_2655_ _2658_/Y _2656_/Y _2784_/C _2655_/Y vdd gnd AOI21X1
X_2586_ _2657_/Y _2587_/Y _2586_/Y vdd gnd NOR2X1
X_4325_ _4598_/Y _4330_/Y _4325_/Y vdd gnd NAND2X1
X_4256_ _4369_/Y _4256_/Y vdd gnd INVX2
X_3207_ _3212_/Y _3208_/Y _3211_/Y _3207_/Y vdd gnd OAI21X1
X_4187_ _4188_/Y _4189_/Y _4209_/B _4187_/Y vdd gnd OAI21X1
X_3138_ _3164_/R vdd _3298_/Y _4880_/CLK _4387_/B vdd gnd DFFSR
X_3069_ _3157_/R vdd _4399_/Y _3157_/CLK _4401_/A vdd gnd DFFSR
XBUFX2_insert100 _3332_/Y _3164_/R vdd gnd BUFX2
XBUFX2_insert111 _2852_/Y _2845_/A vdd gnd BUFX2
XBUFX2_insert122 _4325_/Y _4324_/C vdd gnd BUFX2
XBUFX2_insert133 _2861_/Y _2796_/C vdd gnd BUFX2
XBUFX2_insert144 _3854_/Y _4997_/D vdd gnd BUFX2
XBUFX2_insert155 _3447_/Y _2841_/B vdd gnd BUFX2
XBUFX2_insert166 _4291_/Y _4264_/A vdd gnd BUFX2
X_2440_ _2829_/Y _2828_/A _2683_/Y _2440_/Y vdd gnd AOI21X1
X_2371_ _2835_/A AB[0] vdd gnd BUFX2
X_4110_ _4319_/Y _4146_/Y _4601_/Y _4110_/Y vdd gnd OAI21X1
X_4041_ _4622_/Y _4340_/Y _4041_/Y vdd gnd NAND2X1
X_4943_ _4995_/Q _4943_/B _4977_/C _4946_/A vdd gnd NAND3X1
X_4874_ _4881_/R vdd _4874_/D _4880_/CLK _4874_/Q vdd gnd DFFSR
X_3825_ _3827_/Y _3826_/Y _3825_/Y vdd gnd AND2X2
X_3756_ _4324_/C _3756_/Y vdd gnd INVX1
X_2707_ _2859_/A _2812_/Y _2707_/Y vdd gnd NOR2X1
X_3687_ _3687_/A _4603_/Y _3722_/C _3687_/Y vdd gnd OAI21X1
X_2638_ _2680_/Y _2641_/Y _2638_/Y vdd gnd NAND2X1
X_2569_ _2828_/A _2808_/Y _2831_/Y _2569_/Y vdd gnd NAND3X1
X_4308_ _4308_/A _4309_/Y _4308_/Y vdd gnd NAND2X1
X_4239_ _4382_/Y _4256_/Y _4239_/Y vdd gnd NOR2X1
X_3610_ _3679_/Y _3611_/Y _3758_/Y _3610_/Y vdd gnd NAND3X1
X_4590_ _4596_/Y _4591_/Y _4590_/Y vdd gnd NOR2X1
X_3541_ _4161_/Y _4155_/A _4195_/A _4225_/Y _3541_/Y vdd gnd AOI22X1
X_3472_ _3476_/Y _3473_/Y _3472_/Y vdd gnd AND2X2
X_2423_ _2848_/Y _2847_/A _2849_/C _2423_/Y vdd gnd AOI21X1
X_4024_ _4278_/Y _4025_/Y _4026_/Y _4024_/Y vdd gnd OAI21X1
XBUFX2_insert0 _4033_/Y _3273_/B vdd gnd BUFX2
X_4926_ _4926_/A _4927_/B vdd gnd INVX1
X_4857_ _4868_/A _4857_/B _4857_/C _4878_/D vdd gnd OAI21X1
X_3808_ _4481_/A _4107_/Y _3832_/Y _4871_/Q _3808_/Y vdd gnd AOI22X1
X_4788_ _4788_/A _4845_/A _4808_/A _4789_/A vdd gnd NAND3X1
X_3739_ _3740_/Y _3739_/Y vdd gnd INVX1
X_2972_ _2974_/Y _3029_/Y _2973_/Y _2972_/Y vdd gnd OAI21X1
X_4711_ _4793_/A _4711_/B _4792_/B _4792_/C _4747_/B vdd gnd AOI22X1
X_4642_ _4767_/C _4859_/A _4642_/C _4844_/A vdd gnd OAI21X1
X_4573_ _4578_/Y _4598_/Y _4574_/Y _4573_/D _4573_/Y vdd gnd AOI22X1
X_3524_ _3555_/Y _3524_/Y vdd gnd INVX1
X_3455_ _4535_/C _4059_/Y _3455_/Y vdd gnd NAND2X1
X_2406_ _2407_/Y _2624_/Y _2780_/Y _2406_/Y vdd gnd AOI21X1
X_3386_ _3387_/Y _3837_/Y _4903_/A vdd gnd NAND2X1
X_4007_ _4012_/Y _4627_/A _4008_/Y _4007_/Y vdd gnd AOI21X1
X_4909_ _4909_/A _4909_/B _4921_/B vdd gnd NOR2X1
X_3240_ _4989_/D _4032_/B _3240_/Y vdd gnd NAND2X1
X_3171_ _4464_/B _3172_/Y _3175_/Y _3171_/Y vdd gnd OAI21X1
X_2955_ vdd _4994_/R _2986_/Y _4999_/CLK _3031_/A vdd gnd DFFSR
X_2886_ _2888_/Y _2887_/Y _2886_/Y vdd gnd NOR2X1
X_4625_ _4625_/A _4626_/Y _4625_/Y vdd gnd NOR2X1
X_4556_ _4573_/D _4593_/Y _4557_/Y _4556_/Y vdd gnd NAND3X1
X_3507_ _3811_/Y _3524_/Y _3508_/Y _3507_/Y vdd gnd AOI21X1
X_4487_ _4490_/Y _4491_/Y _4488_/Y _4487_/Y vdd gnd NOR3X1
X_3438_ _3440_/Y _3439_/Y _3438_/Y vdd gnd AND2X2
X_3369_ _4596_/A _4140_/Y _3744_/C _3369_/Y vdd gnd OAI21X1
X_2740_ _2830_/A _2792_/Y _2740_/Y vdd gnd NOR2X1
X_2671_ _2807_/Y _2830_/Y _2824_/C _2671_/Y vdd gnd AOI21X1
X_4410_ _4476_/Y _4410_/B _4411_/Y _4410_/Y vdd gnd AOI21X1
X_4341_ _4341_/A _4341_/Y vdd gnd INVX1
X_4272_ _4355_/A _4273_/Y _4272_/Y vdd gnd NAND2X1
X_3223_ _4388_/A _4616_/A _3563_/A _3223_/Y vdd gnd OAI21X1
X_3154_ _3154_/R vdd _3325_/Y _3154_/CLK _3346_/A vdd gnd DFFSR
X_3085_ _3117_/R vdd _3239_/Y _3160_/CLK _4426_/B vdd gnd DFFSR
X_3987_ _4297_/Y _4020_/Y _3987_/Y vdd gnd NAND2X1
X_2938_ _4995_/D _2940_/Y _2939_/Y _2938_/Y vdd gnd NAND3X1
X_2869_ _4993_/R vdd _2919_/Y _3157_/CLK _4926_/A vdd gnd DFFSR
X_4608_ _4624_/B _4608_/Y vdd gnd INVX1
X_4539_ _4539_/A _4539_/Y vdd gnd INVX1
X_3910_ _3912_/Y _3911_/Y _3910_/Y vdd gnd NOR2X1
X_4890_ _4991_/Q _5003_/Q _4891_/C vdd gnd NOR2X1
X_3841_ _3842_/Y _3841_/Y vdd gnd INVX1
X_3772_ _4317_/A _4145_/Y _4119_/Y _3772_/Y vdd gnd OAI21X1
X_2723_ _2726_/Y _2724_/Y _2730_/Y _2723_/Y vdd gnd NAND3X1
X_2654_ _2663_/Y _2655_/Y _2677_/Y _2670_/Y _2654_/Y vdd gnd AOI22X1
X_2585_ _2586_/Y _2588_/Y _4999_/D _2585_/Y vdd gnd AOI21X1
X_4324_ _4326_/Y _4513_/Y _4324_/C _4324_/Y vdd gnd NAND3X1
X_4255_ _4256_/Y _4362_/Y _4255_/Y vdd gnd NOR2X1
X_3206_ _3812_/A _4296_/Y _3206_/Y vdd gnd NAND2X1
X_4186_ _4430_/Y _4209_/B _4187_/Y _4186_/Y vdd gnd OAI21X1
X_3137_ _3154_/R vdd _4263_/Y _3161_/CLK _4266_/A vdd gnd DFFSR
X_3068_ _3160_/R vdd _4171_/Y _4993_/CLK _4172_/A vdd gnd DFFSR
XBUFX2_insert101 _3332_/Y _3158_/R vdd gnd BUFX2
XBUFX2_insert112 _2852_/Y _2841_/A vdd gnd BUFX2
XBUFX2_insert123 _4465_/Y _4388_/A vdd gnd BUFX2
XBUFX2_insert134 _2861_/Y _2750_/C vdd gnd BUFX2
XBUFX2_insert145 _3854_/Y _3261_/B vdd gnd BUFX2
XBUFX2_insert156 _3447_/Y _3268_/B vdd gnd BUFX2
XBUFX2_insert167 _4291_/Y _4203_/A vdd gnd BUFX2
X_2370_ _2811_/A AB[1] vdd gnd BUFX2
X_4040_ _4101_/A _4148_/Y _4041_/Y _4040_/Y vdd gnd OAI21X1
X_4942_ _4942_/A _4943_/B vdd gnd INVX1
X_4873_ _4881_/R vdd _4873_/D _4881_/CLK _4873_/Q vdd gnd DFFSR
X_3824_ _4451_/Y _4098_/Y _3825_/Y _3824_/Y vdd gnd OAI21X1
X_3755_ _4356_/Y _3983_/Y _3755_/Y vdd gnd NAND2X1
X_2706_ _2807_/Y _2707_/Y _2706_/Y vdd gnd NAND2X1
X_3686_ _3722_/C _4337_/Y _3687_/Y _3686_/Y vdd gnd OAI21X1
X_2637_ _2861_/A _2639_/Y _2638_/Y _2637_/Y vdd gnd NAND3X1
X_2568_ _2782_/Y _2569_/Y _2762_/Y _2568_/Y vdd gnd AOI21X1
X_2499_ _2808_/Y _2657_/Y _2500_/Y _2499_/Y vdd gnd AOI21X1
X_4307_ _4311_/Y _4310_/Y _4308_/Y _4307_/Y vdd gnd NAND3X1
X_4238_ _4239_/Y _4262_/Y _4238_/Y vdd gnd NAND2X1
X_4169_ _4352_/Y _4180_/Y _4169_/Y vdd gnd NAND2X1
X_3540_ _3542_/Y _3541_/Y _3540_/Y vdd gnd NAND2X1
X_3471_ _3472_/Y _3471_/Y vdd gnd INVX8
X_2422_ _2423_/Y _2462_/Y _2784_/C _2422_/Y vdd gnd AOI21X1
X_4023_ _4023_/A _4023_/Y vdd gnd INVX1
XBUFX2_insert1 _4033_/Y _4004_/A vdd gnd BUFX2
X_4925_ _4925_/A _4932_/A vdd gnd INVX1
X_4856_ _4878_/Q _4868_/A _4857_/C vdd gnd NAND2X1
X_3807_ _3809_/Y _3808_/Y _3810_/Y _3807_/Y vdd gnd NAND3X1
X_4787_ _4844_/D _4844_/C _4808_/A vdd gnd NAND2X1
X_3738_ _3738_/A _4147_/Y _3741_/Y _3739_/Y _3738_/Y vdd gnd AOI22X1
X_3669_ _3748_/C _4132_/Y _3670_/Y _3669_/Y vdd gnd OAI21X1
X_2971_ _2980_/Y _2971_/Y vdd gnd INVX1
X_4710_ _4710_/A _4738_/A _4710_/C _4792_/B vdd gnd NAND3X1
X_4641_ _4859_/A _4641_/B _4641_/C _4642_/C vdd gnd NAND3X1
X_4572_ _4605_/Y _4579_/Y _4573_/Y _4572_/Y vdd gnd NAND3X1
X_3523_ _4396_/B _3523_/Y vdd gnd INVX1
X_3454_ _4445_/Y _3463_/Y _3455_/Y _4666_/C vdd gnd OAI21X1
X_2405_ _2789_/C _2674_/Y _2406_/Y _2405_/Y vdd gnd OAI21X1
X_3385_ _4080_/Y _3385_/Y vdd gnd INVX1
X_4006_ _4013_/Y _4007_/Y _4006_/Y vdd gnd AND2X2
X_4908_ _4908_/A _4909_/A vdd gnd INVX1
X_4839_ _4874_/Q _4868_/A _4842_/C vdd gnd NAND2X1
X_3170_ _4548_/Y _4497_/Y _3170_/Y vdd gnd NOR2X1
XCLKBUF1_insert30 clk _3154_/CLK vdd gnd CLKBUF1
X_2954_ _4994_/R vdd _2967_/Y _4999_/CLK _4982_/A vdd gnd DFFSR
X_2885_ _2891_/Y _2886_/Y _2946_/Y _2885_/Y vdd gnd NAND3X1
X_4624_ _4624_/A _4624_/B _4624_/Y vdd gnd NAND2X1
X_4555_ _4595_/Y _4579_/Y _4556_/Y _4555_/Y vdd gnd NAND3X1
X_3506_ _3510_/Y _4605_/Y _3507_/Y _4695_/A vdd gnd OAI21X1
X_4486_ _4494_/Y _4530_/Y _4487_/Y _4486_/Y vdd gnd NAND3X1
X_3437_ _4365_/Y _4120_/Y _3438_/Y _3437_/Y vdd gnd OAI21X1
X_3368_ _3608_/Y _3369_/Y _3590_/Y _3368_/Y vdd gnd AOI21X1
X_3299_ _4164_/Y _4160_/Y _3300_/Y _3299_/Y vdd gnd OAI21X1
X_2670_ _2672_/Y _2671_/Y _2823_/C _2670_/Y vdd gnd AOI21X1
X_4340_ _4620_/Y _4607_/Y _4340_/Y vdd gnd NOR2X1
X_4271_ _4359_/Y _4276_/Y _4271_/Y vdd gnd NAND2X1
X_3222_ _4203_/A _3999_/Y _3223_/Y _3222_/Y vdd gnd OAI21X1
X_3153_ _3153_/R vdd _3988_/Y _3154_/CLK _4310_/A vdd gnd DFFSR
X_3084_ _3158_/R vdd _4452_/Y _5005_/CLK _4464_/A vdd gnd DFFSR
X_3986_ _3986_/A _3987_/Y _3986_/Y vdd gnd NAND2X1
X_2937_ _2944_/Y _2941_/Y _2938_/Y _2937_/Y vdd gnd NOR3X1
X_2868_ vdd _4993_/R _2902_/Y _5004_/CLK _2936_/A vdd gnd DFFSR
X_4607_ _4624_/A _4608_/Y _4607_/Y vdd gnd NAND2X1
X_2799_ _2801_/Y _2800_/Y _2856_/B _2802_/Y _2799_/Y vdd gnd OAI22X1
X_4538_ _4539_/Y _4569_/Y _4538_/C _4538_/Y vdd gnd OAI21X1
X_4469_ _4565_/Y _4471_/Y _4496_/Y _4469_/Y vdd gnd NOR3X1
X_3840_ _3969_/A _4331_/Y _4586_/C _3840_/Y vdd gnd OAI21X1
X_3771_ _3772_/Y _3773_/Y _3771_/Y vdd gnd NOR2X1
X_2722_ _2824_/C _2723_/Y _2736_/Y _2722_/Y vdd gnd NAND3X1
X_2653_ _2859_/A _2858_/B _2653_/Y vdd gnd NOR2X1
X_2584_ _2808_/A _2801_/Y _2584_/Y vdd gnd NOR2X1
X_4323_ _4324_/Y _4328_/Y _4323_/Y vdd gnd NOR2X1
X_4254_ _4275_/Y _4254_/Y vdd gnd INVX1
X_3205_ _4296_/Y _4222_/Y _3206_/Y _3205_/Y vdd gnd OAI21X1
X_4185_ _4185_/A _4224_/Y _4185_/Y vdd gnd NAND2X1
X_3136_ _3152_/R vdd _3296_/Y _3161_/CLK _3297_/C vdd gnd DFFSR
X_3067_ _3152_/R vdd _3216_/Y _3154_/CLK _3877_/A vdd gnd DFFSR
X_3969_ _3969_/A _4524_/Y _4586_/A _3969_/Y vdd gnd OAI21X1
XBUFX2_insert102 _3332_/Y _3157_/R vdd gnd BUFX2
XBUFX2_insert113 _2852_/Y _2851_/C vdd gnd BUFX2
XBUFX2_insert124 _4465_/Y _4297_/C vdd gnd BUFX2
XBUFX2_insert135 _2861_/Y _2760_/C vdd gnd BUFX2
XBUFX2_insert146 _3854_/Y _2838_/A vdd gnd BUFX2
XBUFX2_insert157 _3447_/Y _2801_/A vdd gnd BUFX2
X_4941_ _4941_/A _4948_/A vdd gnd INVX1
X_4872_ _4881_/R vdd _4872_/D _4881_/CLK _4872_/Q vdd gnd DFFSR
X_3823_ _4873_/Q _4142_/Y _3824_/Y _3823_/Y vdd gnd AOI21X1
X_3754_ _3755_/Y _3944_/Y _3754_/Y vdd gnd NOR2X1
X_2705_ _2708_/Y _2710_/Y _2706_/Y _2705_/Y vdd gnd OAI21X1
X_3685_ _3686_/Y _3719_/Y _3685_/Y vdd gnd NAND2X1
X_2636_ _2698_/B _2830_/A _2841_/A _2636_/Y vdd gnd AOI21X1
X_2567_ _2568_/Y _2570_/Y _2804_/C _2567_/Y vdd gnd AOI21X1
X_2498_ _2499_/Y _2503_/Y _2753_/C _2498_/Y vdd gnd AOI21X1
X_4306_ _4322_/Y _4307_/Y _4306_/Y vdd gnd NOR2X1
X_4237_ _4271_/Y _4248_/Y _4237_/Y vdd gnd NOR2X1
X_4168_ _4169_/Y _4170_/Y _4168_/Y vdd gnd NAND2X1
X_3119_ _3154_/R vdd _4227_/Y _3154_/CLK _4257_/A vdd gnd DFFSR
X_4099_ _4108_/Y _4100_/Y _4099_/Y vdd gnd AND2X2
X_3470_ _4540_/C _3470_/Y vdd gnd INVX1
X_2421_ _2839_/A _2424_/Y _2422_/Y _2421_/Y vdd gnd OAI21X1
X_4022_ _4306_/Y _4226_/Y _4022_/Y vdd gnd NAND2X1
XBUFX2_insert2 _4033_/Y _3270_/A vdd gnd BUFX2
X_4924_ _4924_/A _4985_/B _4924_/C _4924_/D _4924_/Y vdd gnd AOI22X1
X_4855_ _4870_/A _4855_/B _4855_/C _4876_/D vdd gnd OAI21X1
X_3806_ _3806_/A _3806_/Y vdd gnd INVX1
X_4786_ _4807_/A _4844_/D vdd gnd INVX1
X_3737_ _4319_/Y _3737_/Y vdd gnd INVX1
X_3668_ _4297_/C _4518_/Y _3668_/Y vdd gnd NOR2X1
X_2619_ _2793_/Y _2620_/Y _2849_/C _2619_/Y vdd gnd OAI21X1
X_3599_ _3600_/Y _3606_/Y _3599_/Y vdd gnd OR2X2
X_2970_ _2987_/Y _2971_/Y _2989_/Y _2970_/Y vdd gnd NAND3X1
X_4640_ _4829_/A _4648_/A _4658_/B _4641_/B vdd gnd OAI21X1
X_4571_ _4571_/A _4571_/Y vdd gnd INVX1
X_3522_ _4872_/Q _3554_/Y _3522_/Y vdd gnd NAND2X1
X_3453_ _4529_/C _4059_/Y _3453_/Y vdd gnd NAND2X1
X_2404_ _2823_/C _2408_/Y _2405_/Y _2404_/Y vdd gnd NAND3X1
X_3384_ _4204_/C _3916_/Y _3881_/Y _3384_/Y vdd gnd NAND3X1
X_4005_ _4006_/Y _4005_/Y vdd gnd INVX4
X_4907_ DI[6] _4911_/A vdd gnd INVX1
X_4838_ _4865_/C _4863_/C vdd gnd INVX1
X_4769_ _4859_/A _4833_/B _4769_/C _4774_/A vdd gnd OAI21X1
X_2953_ _4994_/R vdd _2988_/Y _4999_/CLK _3017_/A vdd gnd DFFSR
XCLKBUF1_insert31 clk _3160_/CLK vdd gnd CLKBUF1
X_2884_ _2936_/A _2914_/Y _2884_/Y vdd gnd NAND2X1
X_4623_ _4624_/Y _4623_/Y vdd gnd INVX1
X_4554_ _4558_/Y _4555_/Y _4554_/Y vdd gnd NOR2X1
X_3505_ _3681_/Y _3592_/Y _3761_/Y _3505_/Y vdd gnd NAND3X1
X_4485_ _4549_/Y _4543_/Y _4486_/Y _4485_/Y vdd gnd NOR3X1
X_3436_ _4012_/Y _4353_/A _3437_/Y _3436_/Y vdd gnd AOI21X1
X_3367_ _3370_/Y _3368_/Y _3712_/Y _3367_/Y vdd gnd NAND3X1
X_3298_ _4384_/Y _4025_/A _3337_/Y _3298_/Y vdd gnd OAI21X1
X_4270_ _4271_/Y _4270_/Y vdd gnd INVX1
X_3221_ _4990_/D _4031_/B _3221_/Y vdd gnd NAND2X1
X_3152_ _3152_/R vdd _3320_/Y _3154_/CLK _4308_/A vdd gnd DFFSR
X_3083_ _3151_/R vdd _3237_/Y _3157_/CLK _4410_/B vdd gnd DFFSR
X_3985_ _4222_/Y _3987_/Y _3986_/Y _3985_/Y vdd gnd OAI21X1
X_2936_ _2936_/A _2946_/Y _2937_/Y _2936_/Y vdd gnd NAND3X1
X_2867_ _4993_/R vdd _2881_/Y _5004_/CLK _4976_/A vdd gnd DFFSR
X_4606_ _4609_/Y _4607_/Y _4606_/Y vdd gnd NOR2X1
X_2798_ _2798_/A _2798_/B _2837_/A _2798_/Y vdd gnd OAI21X1
X_4537_ _4572_/Y _4877_/Q _4538_/Y _4537_/Y vdd gnd AOI21X1
X_4468_ _4469_/Y _4468_/Y vdd gnd INVX1
X_3419_ _4434_/Y _4098_/Y _3420_/Y _3419_/Y vdd gnd OAI21X1
X_4399_ _4804_/C _4401_/Y _4400_/Y _4399_/Y vdd gnd OAI21X1
X_3770_ _3771_/Y _3770_/Y vdd gnd INVX1
X_2721_ _2762_/Y _2745_/Y _2722_/Y _2721_/Y vdd gnd NAND3X1
X_2652_ _2807_/A _2653_/Y _2709_/Y _2652_/Y vdd gnd OAI21X1
X_2583_ _2834_/C _2822_/C _2583_/Y vdd gnd NAND2X1
X_4322_ _4323_/Y _4332_/Y _4322_/Y vdd gnd NAND2X1
X_4253_ _4377_/Y _4253_/Y vdd gnd INVX1
X_3204_ _3518_/A _4296_/Y _3204_/Y vdd gnd NAND2X1
X_4184_ _4224_/Y _4186_/Y _4185_/Y _4184_/Y vdd gnd OAI21X1
X_3135_ _3164_/R vdd _3957_/Y _3163_/CLK _3959_/A vdd gnd DFFSR
X_3066_ _4881_/R vdd _4870_/Y _4880_/CLK _4821_/A vdd gnd DFFSR
X_3968_ _3969_/Y _3968_/Y vdd gnd INVX1
X_2919_ _2921_/Y _2936_/Y _2920_/Y _2919_/Y vdd gnd OAI21X1
X_3899_ _4276_/Y _4376_/Y _3899_/Y vdd gnd NAND2X1
XBUFX2_insert103 _4388_/Y _3989_/C vdd gnd BUFX2
XBUFX2_insert114 _2852_/Y _2822_/C vdd gnd BUFX2
XBUFX2_insert125 _4465_/Y _3751_/C vdd gnd BUFX2
XBUFX2_insert136 _2861_/Y _2849_/C vdd gnd BUFX2
XBUFX2_insert147 _4600_/Y _4132_/A vdd gnd BUFX2
XBUFX2_insert158 _3447_/Y _2792_/B vdd gnd BUFX2
X_4940_ _4940_/A _4985_/B _4940_/C _4940_/D _4940_/Y vdd gnd AOI22X1
X_4871_ _4881_/R vdd _4871_/D _4881_/CLK _4871_/Q vdd gnd DFFSR
X_3822_ _3823_/Y _5004_/D vdd gnd INVX1
X_3753_ _3779_/A _3756_/Y _3754_/Y _3779_/D _3753_/Y vdd gnd AOI22X1
X_2704_ _2745_/A _2705_/Y _2704_/Y vdd gnd NOR2X1
X_3684_ _3744_/C _3971_/Y _3685_/Y _3684_/Y vdd gnd AOI21X1
X_2635_ _2846_/A _2636_/Y _2635_/Y vdd gnd NAND2X1
X_2566_ _2567_/Y _2571_/Y _4997_/D _2566_/Y vdd gnd AOI21X1
X_4305_ _4306_/Y _4312_/Y _4305_/Y vdd gnd NOR2X1
X_2497_ _2498_/Y _2505_/Y _2762_/Y _2497_/Y vdd gnd AOI21X1
X_4236_ _4237_/Y _4236_/Y vdd gnd INVX1
X_4167_ _4168_/Y _4178_/Y _4167_/Y vdd gnd NOR2X1
X_3118_ _3153_/R vdd _3286_/Y _3164_/CLK _3740_/B vdd gnd DFFSR
X_4098_ _4099_/Y _4111_/Y _4098_/Y vdd gnd NAND2X1
X_3049_ _5005_/R vdd _3192_/Y _3164_/CLK _4501_/C vdd gnd DFFSR
X_2420_ _2838_/A _2421_/Y _2426_/Y _2420_/Y vdd gnd NAND3X1
X_4021_ _4306_/Y _4312_/Y _4021_/Y vdd gnd NAND2X1
XBUFX2_insert3 _4033_/Y _4031_/B vdd gnd BUFX2
X_4923_ _4971_/A _4923_/B _4985_/B _4924_/D vdd gnd AOI21X1
X_4854_ _4870_/A _4867_/D _4855_/C vdd gnd NAND2X1
X_3805_ _4153_/A _4161_/Y _3805_/Y vdd gnd NAND2X1
X_4785_ _4804_/A _4857_/B _4785_/C _4844_/C vdd gnd OAI21X1
X_3736_ _4125_/A _3737_/Y _3738_/A _3736_/Y vdd gnd OAI21X1
X_3667_ _4297_/C _4542_/Y _4558_/Y _3668_/Y _3667_/Y vdd gnd AOI22X1
X_2618_ _4998_/D _2622_/Y _2619_/Y _2618_/Y vdd gnd NAND3X1