* XSpice netlist created from SPICE and liberty sources by spi2xspice.py
*SPICE netlist created from verilog structural netlist module booth_multiplier by vlog2Spice (qflow)
** Start of included library /usr/local/share/qflow/tech/etri050/etri050_stdcells.sp
* NGSPICE file created from khu_etri050_stdcells.ext - technology: scmos
** End of included library /usr/local/share/qflow/tech/etri050/etri050_stdcells.sp
.subckt booth_multiplier a_vdd a_gnd a_clk a_multIn_0_ a_multIn_1_ a_multIn_2_ a_multIn_3_ a_multIn_4_ a_multIn_5_ a_multIn_6_ a_multIn_7_ a_product_0_ a_product_1_ a_product_2_ a_product_3_ a_product_4_ a_product_5_ a_product_6_ a_product_7_ a_product_8_ a_product_9_ a_product_10_ a_product_11_ a_product_12_ a_product_13_ a_product_14_ a_product_15_ a_select
ABUFX2_insert81 [\step5.myadd.cin\] \step5.myadd.cin_bF$buf0\ d_lut_BUFX2
ABUFX2_insert80 [\step5.myadd.cin\] \step5.myadd.cin_bF$buf1\ d_lut_BUFX2
ABUFX2_insert79 [\step5.myadd.cin\] \step5.myadd.cin_bF$buf2\ d_lut_BUFX2
ABUFX2_insert78 [\step5.myadd.cin\] \step5.myadd.cin_bF$buf3\ d_lut_BUFX2
ABUFX2_insert77 [\step5.myadd.cin\] \step5.myadd.cin_bF$buf4\ d_lut_BUFX2
ABUFX2_insert76 [\step7.myadd.cin\] \step7.myadd.cin_bF$buf0\ d_lut_BUFX2
ABUFX2_insert75 [\step7.myadd.cin\] \step7.myadd.cin_bF$buf1\ d_lut_BUFX2
ABUFX2_insert74 [\step7.myadd.cin\] \step7.myadd.cin_bF$buf2\ d_lut_BUFX2
ABUFX2_insert73 [\step7.myadd.cin\] \step7.myadd.cin_bF$buf3\ d_lut_BUFX2
ABUFX2_insert72 [\step7.myadd.cin\] \step7.myadd.cin_bF$buf4\ d_lut_BUFX2
ABUFX2_insert71 [\step1.myadd.x1.i0\] \step1.myadd.x1.i0_bF$buf0\ d_lut_BUFX2
ABUFX2_insert70 [\step1.myadd.x1.i0\] \step1.myadd.x1.i0_bF$buf1\ d_lut_BUFX2
ABUFX2_insert69 [\step1.myadd.x1.i0\] \step1.myadd.x1.i0_bF$buf2\ d_lut_BUFX2
ABUFX2_insert68 [\step1.myadd.x1.i0\] \step1.myadd.x1.i0_bF$buf3\ d_lut_BUFX2
ABUFX2_insert67 [\step1.myadd.x6.i0\] \step1.myadd.x6.i0_bF$buf0\ d_lut_BUFX2
ABUFX2_insert66 [\step1.myadd.x6.i0\] \step1.myadd.x6.i0_bF$buf1\ d_lut_BUFX2
ABUFX2_insert65 [\step1.myadd.x6.i0\] \step1.myadd.x6.i0_bF$buf2\ d_lut_BUFX2
ABUFX2_insert64 [\step1.myadd.x6.i0\] \step1.myadd.x6.i0_bF$buf3\ d_lut_BUFX2
ABUFX2_insert63 [\step2.myadd.cin\] \step2.myadd.cin_bF$buf0\ d_lut_BUFX2
ABUFX2_insert62 [\step2.myadd.cin\] \step2.myadd.cin_bF$buf1\ d_lut_BUFX2
ABUFX2_insert61 [\step2.myadd.cin\] \step2.myadd.cin_bF$buf2\ d_lut_BUFX2
ABUFX2_insert60 [\step2.myadd.cin\] \step2.myadd.cin_bF$buf3\ d_lut_BUFX2
ABUFX2_insert59 [\step2.myadd.cin\] \step2.myadd.cin_bF$buf4\ d_lut_BUFX2
ABUFX2_insert58 [\step4.myadd.cin\] \step4.myadd.cin_bF$buf0\ d_lut_BUFX2
ABUFX2_insert57 [\step4.myadd.cin\] \step4.myadd.cin_bF$buf1\ d_lut_BUFX2
ABUFX2_insert56 [\step4.myadd.cin\] \step4.myadd.cin_bF$buf2\ d_lut_BUFX2
ABUFX2_insert55 [\step4.myadd.cin\] \step4.myadd.cin_bF$buf3\ d_lut_BUFX2
ABUFX2_insert54 [\step4.myadd.cin\] \step4.myadd.cin_bF$buf4\ d_lut_BUFX2
ABUFX2_insert53 [\step1.myadd.x2.i0\] \step1.myadd.x2.i0_bF$buf0\ d_lut_BUFX2
ABUFX2_insert52 [\step1.myadd.x2.i0\] \step1.myadd.x2.i0_bF$buf1\ d_lut_BUFX2
ABUFX2_insert51 [\step1.myadd.x2.i0\] \step1.myadd.x2.i0_bF$buf2\ d_lut_BUFX2
ABUFX2_insert50 [\step1.myadd.x2.i0\] \step1.myadd.x2.i0_bF$buf3\ d_lut_BUFX2
ABUFX2_insert49 [\step1.myadd.x7.i0\] \step1.myadd.x7.i0_bF$buf0\ d_lut_BUFX2
ABUFX2_insert48 [\step1.myadd.x7.i0\] \step1.myadd.x7.i0_bF$buf1\ d_lut_BUFX2
ABUFX2_insert47 [\step1.myadd.x7.i0\] \step1.myadd.x7.i0_bF$buf2\ d_lut_BUFX2
ABUFX2_insert46 [\step1.myadd.x7.i0\] \step1.myadd.x7.i0_bF$buf3\ d_lut_BUFX2
ABUFX2_insert45 [\step6.myadd.cin\] \step6.myadd.cin_bF$buf0\ d_lut_BUFX2
ABUFX2_insert44 [\step6.myadd.cin\] \step6.myadd.cin_bF$buf1\ d_lut_BUFX2
ABUFX2_insert43 [\step6.myadd.cin\] \step6.myadd.cin_bF$buf2\ d_lut_BUFX2
ABUFX2_insert42 [\step6.myadd.cin\] \step6.myadd.cin_bF$buf3\ d_lut_BUFX2
ABUFX2_insert41 [\step6.myadd.cin\] \step6.myadd.cin_bF$buf4\ d_lut_BUFX2
ABUFX2_insert40 [qout] qout_bF$buf0 d_lut_BUFX2
ABUFX2_insert39 [qout] qout_bF$buf1 d_lut_BUFX2
ABUFX2_insert38 [qout] qout_bF$buf2 d_lut_BUFX2
ABUFX2_insert37 [qout] qout_bF$buf3 d_lut_BUFX2
ABUFX2_insert36 [qout] qout_bF$buf4 d_lut_BUFX2
ABUFX2_insert35 [\step1.myadd.x3.i0\] \step1.myadd.x3.i0_bF$buf0\ d_lut_BUFX2
ABUFX2_insert34 [\step1.myadd.x3.i0\] \step1.myadd.x3.i0_bF$buf1\ d_lut_BUFX2
ABUFX2_insert33 [\step1.myadd.x3.i0\] \step1.myadd.x3.i0_bF$buf2\ d_lut_BUFX2
ABUFX2_insert32 [\step1.myadd.x3.i0\] \step1.myadd.x3.i0_bF$buf3\ d_lut_BUFX2
ABUFX2_insert31 [\step1.myadd.cin\] \step1.myadd.cin_bF$buf0\ d_lut_BUFX2
ABUFX2_insert30 [\step1.myadd.cin\] \step1.myadd.cin_bF$buf1\ d_lut_BUFX2
ABUFX2_insert29 [\step1.myadd.cin\] \step1.myadd.cin_bF$buf2\ d_lut_BUFX2
ABUFX2_insert28 [\step1.myadd.cin\] \step1.myadd.cin_bF$buf3\ d_lut_BUFX2
ABUFX2_insert27 [\step1.myadd.cin\] \step1.myadd.cin_bF$buf4\ d_lut_BUFX2
ABUFX2_insert26 [\step1.myadd.x4.i0\] \step1.myadd.x4.i0_bF$buf0\ d_lut_BUFX2
ABUFX2_insert25 [\step1.myadd.x4.i0\] \step1.myadd.x4.i0_bF$buf1\ d_lut_BUFX2
ABUFX2_insert24 [\step1.myadd.x4.i0\] \step1.myadd.x4.i0_bF$buf2\ d_lut_BUFX2
ABUFX2_insert23 [\step1.myadd.x4.i0\] \step1.myadd.x4.i0_bF$buf3\ d_lut_BUFX2
ACLKBUF1_insert22 [clk] clk_bF$buf0 d_lut_CLKBUF1
ACLKBUF1_insert21 [clk] clk_bF$buf1 d_lut_CLKBUF1
ACLKBUF1_insert20 [clk] clk_bF$buf2 d_lut_CLKBUF1
ACLKBUF1_insert19 [clk] clk_bF$buf3 d_lut_CLKBUF1
ACLKBUF1_insert18 [clk] clk_bF$buf4 d_lut_CLKBUF1
ABUFX2_insert17 [\step3.myadd.cin\] \step3.myadd.cin_bF$buf0\ d_lut_BUFX2
ABUFX2_insert16 [\step3.myadd.cin\] \step3.myadd.cin_bF$buf1\ d_lut_BUFX2
ABUFX2_insert15 [\step3.myadd.cin\] \step3.myadd.cin_bF$buf2\ d_lut_BUFX2
ABUFX2_insert14 [\step3.myadd.cin\] \step3.myadd.cin_bF$buf3\ d_lut_BUFX2
ABUFX2_insert13 [\step3.myadd.cin\] \step3.myadd.cin_bF$buf4\ d_lut_BUFX2
ABUFX2_insert12 [select] select_bF$buf0 d_lut_BUFX2
ABUFX2_insert11 [select] select_bF$buf1 d_lut_BUFX2
ABUFX2_insert10 [select] select_bF$buf2 d_lut_BUFX2
ABUFX2_insert9 [select] select_bF$buf3 d_lut_BUFX2
ABUFX2_insert8 [select] select_bF$buf4 d_lut_BUFX2
ABUFX2_insert7 [\step1.myadd.x0.i0\] \step1.myadd.x0.i0_bF$buf0\ d_lut_BUFX2
ABUFX2_insert6 [\step1.myadd.x0.i0\] \step1.myadd.x0.i0_bF$buf1\ d_lut_BUFX2
ABUFX2_insert5 [\step1.myadd.x0.i0\] \step1.myadd.x0.i0_bF$buf2\ d_lut_BUFX2
ABUFX2_insert4 [\step1.myadd.x0.i0\] \step1.myadd.x0.i0_bF$buf3\ d_lut_BUFX2
ABUFX2_insert3 [\step1.myadd.x5.i0\] \step1.myadd.x5.i0_bF$buf0\ d_lut_BUFX2
ABUFX2_insert2 [\step1.myadd.x5.i0\] \step1.myadd.x5.i0_bF$buf1\ d_lut_BUFX2
ABUFX2_insert1 [\step1.myadd.x5.i0\] \step1.myadd.x5.i0_bF$buf2\ d_lut_BUFX2
ABUFX2_insert0 [\step1.myadd.x5.i0\] \step1.myadd.x5.i0_bF$buf3\ d_lut_BUFX2
A_1000_ [\step1.myadd.fa3.sum\ _49_ _48_] _54_ d_lut_NAND3X1
A_1001_ [_51_ _52_ gnd] _55_ d_lut_OAI21X1
A_1002_ [_55_ _54_] \step2.myadd.fa2.i0\ d_lut_NAND2X1
A_1003_ [\step1.myadd.fa4.sum\ _49_ _48_] _56_ d_lut_NAND3X1
A_1004_ [_51_ _52_ gnd] _57_ d_lut_OAI21X1
A_1005_ [_57_ _56_] \step2.myadd.fa3.i0\ d_lut_NAND2X1
A_1006_ [\step1.myadd.fa5.sum\ _49_ _48_] _58_ d_lut_NAND3X1
A_1007_ [_51_ _52_ gnd] _59_ d_lut_OAI21X1
A_1008_ [_59_ _58_] \step2.myadd.fa4.i0\ d_lut_NAND2X1
A_1009_ [\step1.myadd.fa6.sum\ _49_ _48_] _60_ d_lut_NAND3X1
A_1010_ [_51_ _52_ gnd] _61_ d_lut_OAI21X1
A_1011_ [_61_ _60_] \step2.myadd.fa5.i0\ d_lut_NAND2X1
A_1012_ [\step1.myadd.fa7.sum\ _49_ _48_] _62_ d_lut_NAND3X1
A_1013_ [_51_ _52_ gnd] _63_ d_lut_OAI21X1
A_1014_ [_63_ _62_] \step2.myadd.fa6.i0\ d_lut_NAND2X1
A_1015_ [\step1.myadd.fa8.sum\ _49_ _48_] _64_ d_lut_NAND3X1
A_1016_ [_51_ _52_ gnd] _65_ d_lut_OAI21X1
A_1017_ [_65_ _64_] \step2.myadd.fa7.i0\ d_lut_NAND2X1
A_1018_ [\step1.myadd.fa1.sum\ _49_ _48_] _66_ d_lut_NAND3X1
A_1019_ [_51_ _52_ gnd] _67_ d_lut_OAI21X1
A_1020_ [_67_ _66_] \Q_0_\_7_ d_lut_NAND2X1
A_1021_ [\step1.myadd.fa1.i1\ \step1.myadd.cin_bF$buf4\] _71_ d_lut_AND2X2
A_1022_ [\step1.myadd.fa1.i1\ \step1.myadd.cin_bF$buf3\] _72_ d_lut_NOR2X1
A_1023_ [_72_ _71_ gnd] _73_ d_lut_OAI21X1
A_1024_ [gnd] _74_ d_lut_INVX1
A_1025_ [\step1.myadd.fa1.i1\ \step1.myadd.cin_bF$buf2\] _68_ d_lut_NAND2X1
A_1026_ [\step1.myadd.fa1.i1\ \step1.myadd.cin_bF$buf1\] _69_ d_lut_OR2X2
A_1027_ [_74_ _68_ _69_] _70_ d_lut_NAND3X1
A_1028_ [_73_ _70_] \step1.myadd.fa1.sum\ d_lut_NAND2X1
A_1029_ [_74_ _68_ _72_] \step1.myadd.fa1.cout\ d_lut_AOI21X1
A_1030_ [\step1.myadd.fa2.i1\ \step1.myadd.fa1.cout\] _78_ d_lut_AND2X2
A_1031_ [\step1.myadd.fa2.i1\ \step1.myadd.fa1.cout\] _79_ d_lut_NOR2X1
A_1032_ [_79_ _78_ gnd] _80_ d_lut_OAI21X1
A_1033_ [gnd] _81_ d_lut_INVX1
A_1034_ [\step1.myadd.fa2.i1\ \step1.myadd.fa1.cout\] _75_ d_lut_NAND2X1
A_1035_ [\step1.myadd.fa2.i1\ \step1.myadd.fa1.cout\] _76_ d_lut_OR2X2
A_1036_ [_81_ _75_ _76_] _77_ d_lut_NAND3X1
A_1037_ [_80_ _77_] \step1.myadd.fa2.sum\ d_lut_NAND2X1
A_1038_ [_81_ _75_ _79_] \step1.myadd.fa2.cout\ d_lut_AOI21X1
A_1039_ [\step1.myadd.fa3.i1\ \step1.myadd.fa2.cout\] _85_ d_lut_AND2X2
A_1040_ [\step1.myadd.fa3.i1\ \step1.myadd.fa2.cout\] _86_ d_lut_NOR2X1
A_1041_ [_86_ _85_ gnd] _87_ d_lut_OAI21X1
A_1042_ [gnd] _88_ d_lut_INVX1
A_1043_ [\step1.myadd.fa3.i1\ \step1.myadd.fa2.cout\] _82_ d_lut_NAND2X1
A_1044_ [\step1.myadd.fa3.i1\ \step1.myadd.fa2.cout\] _83_ d_lut_OR2X2
A_1045_ [_88_ _82_ _83_] _84_ d_lut_NAND3X1
A_1046_ [_87_ _84_] \step1.myadd.fa3.sum\ d_lut_NAND2X1
A_1047_ [_88_ _82_ _86_] \step1.myadd.fa3.cout\ d_lut_AOI21X1
A_1048_ [\step1.myadd.fa4.i1\ \step1.myadd.fa3.cout\] _92_ d_lut_AND2X2
A_1049_ [\step1.myadd.fa4.i1\ \step1.myadd.fa3.cout\] _93_ d_lut_NOR2X1
A_1050_ [_93_ _92_ gnd] _94_ d_lut_OAI21X1
A_1051_ [gnd] _95_ d_lut_INVX1
A_1052_ [\step1.myadd.fa4.i1\ \step1.myadd.fa3.cout\] _89_ d_lut_NAND2X1
A_1053_ [\step1.myadd.fa4.i1\ \step1.myadd.fa3.cout\] _90_ d_lut_OR2X2
A_1054_ [_95_ _89_ _90_] _91_ d_lut_NAND3X1
A_1055_ [_94_ _91_] \step1.myadd.fa4.sum\ d_lut_NAND2X1
A_1056_ [_95_ _89_ _93_] \step1.myadd.fa4.cout\ d_lut_AOI21X1
A_1057_ [\step1.myadd.fa5.i1\ \step1.myadd.fa4.cout\] _99_ d_lut_AND2X2
A_1058_ [\step1.myadd.fa5.i1\ \step1.myadd.fa4.cout\] _100_ d_lut_NOR2X1
A_1059_ [_100_ _99_ gnd] _101_ d_lut_OAI21X1
A_1060_ [gnd] _102_ d_lut_INVX1
A_1061_ [\step1.myadd.fa5.i1\ \step1.myadd.fa4.cout\] _96_ d_lut_NAND2X1
A_1062_ [\step1.myadd.fa5.i1\ \step1.myadd.fa4.cout\] _97_ d_lut_OR2X2
A_1063_ [_102_ _96_ _97_] _98_ d_lut_NAND3X1
A_1064_ [_101_ _98_] \step1.myadd.fa5.sum\ d_lut_NAND2X1
A_1065_ [_102_ _96_ _100_] \step1.myadd.fa5.cout\ d_lut_AOI21X1
A_1066_ [\step1.myadd.fa6.i1\ \step1.myadd.fa5.cout\] _106_ d_lut_AND2X2
A_1067_ [\step1.myadd.fa6.i1\ \step1.myadd.fa5.cout\] _107_ d_lut_NOR2X1
A_1068_ [_107_ _106_ gnd] _108_ d_lut_OAI21X1
A_1069_ [gnd] _109_ d_lut_INVX1
A_1070_ [\step1.myadd.fa6.i1\ \step1.myadd.fa5.cout\] _103_ d_lut_NAND2X1
A_1071_ [\step1.myadd.fa6.i1\ \step1.myadd.fa5.cout\] _104_ d_lut_OR2X2
A_1072_ [_109_ _103_ _104_] _105_ d_lut_NAND3X1
A_1073_ [_108_ _105_] \step1.myadd.fa6.sum\ d_lut_NAND2X1
A_1074_ [_109_ _103_ _107_] \step1.myadd.fa6.cout\ d_lut_AOI21X1
A_1075_ [\step1.myadd.fa7.i1\ \step1.myadd.fa6.cout\] _113_ d_lut_AND2X2
A_1076_ [\step1.myadd.fa7.i1\ \step1.myadd.fa6.cout\] _114_ d_lut_NOR2X1
A_1077_ [_114_ _113_ gnd] _115_ d_lut_OAI21X1
A_1078_ [gnd] _116_ d_lut_INVX1
A_1079_ [\step1.myadd.fa7.i1\ \step1.myadd.fa6.cout\] _110_ d_lut_NAND2X1
A_1080_ [\step1.myadd.fa7.i1\ \step1.myadd.fa6.cout\] _111_ d_lut_OR2X2
A_1081_ [_116_ _110_ _111_] _112_ d_lut_NAND3X1
A_1082_ [_115_ _112_] \step1.myadd.fa7.sum\ d_lut_NAND2X1
A_1083_ [_116_ _110_ _114_] \step1.myadd.fa7.cout\ d_lut_AOI21X1
A_1084_ [\step1.myadd.fa8.i1\ \step1.myadd.fa7.cout\] _120_ d_lut_AND2X2
A_1085_ [\step1.myadd.fa8.i1\ \step1.myadd.fa7.cout\] _121_ d_lut_NOR2X1
A_1086_ [_121_ _120_ gnd] _122_ d_lut_OAI21X1
A_1087_ [gnd] _123_ d_lut_INVX1
A_1088_ [\step1.myadd.fa8.i1\ \step1.myadd.fa7.cout\] _117_ d_lut_NAND2X1
A_1089_ [\step1.myadd.fa8.i1\ \step1.myadd.fa7.cout\] _118_ d_lut_OR2X2
A_1090_ [_123_ _117_ _118_] _119_ d_lut_NAND3X1
A_1091_ [_122_ _119_] \step1.myadd.fa8.sum\ d_lut_NAND2X1
A_1092_ [\step1.myadd.cin_bF$buf0\] _124_ d_lut_INVX1
A_1093_ [\step1.myadd.x0.i0_bF$buf3\ _124_] _125_ d_lut_NAND2X1
A_1094_ [\step1.myadd.x0.i0_bF$buf2\] _126_ d_lut_INVX1
A_1095_ [\step1.myadd.cin_bF$buf4\ _126_] _127_ d_lut_NAND2X1
A_1096_ [_125_ _127_] \step1.myadd.fa1.i1\ d_lut_NAND2X1
A_1097_ [\step1.myadd.cin_bF$buf3\] _128_ d_lut_INVX1
A_1098_ [\step1.myadd.x1.i0_bF$buf3\ _128_] _129_ d_lut_NAND2X1
A_1099_ [\step1.myadd.x1.i0_bF$buf2\] _130_ d_lut_INVX1
A_1100_ [\step1.myadd.cin_bF$buf2\ _130_] _131_ d_lut_NAND2X1
A_1101_ [_129_ _131_] \step1.myadd.fa2.i1\ d_lut_NAND2X1
A_1102_ [\step1.myadd.cin_bF$buf1\] _132_ d_lut_INVX1
A_1103_ [\step1.myadd.x2.i0_bF$buf3\ _132_] _133_ d_lut_NAND2X1
A_1104_ [\step1.myadd.x2.i0_bF$buf2\] _134_ d_lut_INVX1
A_1105_ [\step1.myadd.cin_bF$buf0\ _134_] _135_ d_lut_NAND2X1
A_1106_ [_133_ _135_] \step1.myadd.fa3.i1\ d_lut_NAND2X1
A_1107_ [\step1.myadd.cin_bF$buf4\] _136_ d_lut_INVX1
A_1108_ [\step1.myadd.x3.i0_bF$buf3\ _136_] _137_ d_lut_NAND2X1
A_1109_ [\step1.myadd.x3.i0_bF$buf2\] _138_ d_lut_INVX1
A_1110_ [\step1.myadd.cin_bF$buf3\ _138_] _139_ d_lut_NAND2X1
A_1111_ [_137_ _139_] \step1.myadd.fa4.i1\ d_lut_NAND2X1
A_1112_ [\step1.myadd.cin_bF$buf2\] _140_ d_lut_INVX1
A_1113_ [\step1.myadd.x4.i0_bF$buf3\ _140_] _141_ d_lut_NAND2X1
A_1114_ [\step1.myadd.x4.i0_bF$buf2\] _142_ d_lut_INVX1
A_1115_ [\step1.myadd.cin_bF$buf1\ _142_] _143_ d_lut_NAND2X1
A_1116_ [_141_ _143_] \step1.myadd.fa5.i1\ d_lut_NAND2X1
A_1117_ [\step1.myadd.cin_bF$buf0\] _144_ d_lut_INVX1
A_1118_ [\step1.myadd.x5.i0_bF$buf3\ _144_] _145_ d_lut_NAND2X1
A_1119_ [\step1.myadd.x5.i0_bF$buf2\] _146_ d_lut_INVX1
A_1120_ [\step1.myadd.cin_bF$buf4\ _146_] _147_ d_lut_NAND2X1
A_1121_ [_145_ _147_] \step1.myadd.fa6.i1\ d_lut_NAND2X1
A_1122_ [\step1.myadd.cin_bF$buf3\] _148_ d_lut_INVX1
A_1123_ [\step1.myadd.x6.i0_bF$buf3\ _148_] _149_ d_lut_NAND2X1
A_1124_ [\step1.myadd.x6.i0_bF$buf2\] _150_ d_lut_INVX1
A_1125_ [\step1.myadd.cin_bF$buf2\ _150_] _151_ d_lut_NAND2X1
A_1126_ [_149_ _151_] \step1.myadd.fa7.i1\ d_lut_NAND2X1
A_1127_ [\step1.myadd.cin_bF$buf1\] _152_ d_lut_INVX1
A_1128_ [\step1.myadd.x7.i0_bF$buf3\ _152_] _153_ d_lut_NAND2X1
A_1129_ [\step1.myadd.x7.i0_bF$buf2\] _154_ d_lut_INVX1
A_1130_ [\step1.myadd.cin_bF$buf0\ _154_] _155_ d_lut_NAND2X1
A_1131_ [_153_ _155_] \step1.myadd.fa8.i1\ d_lut_NAND2X1
A_1132_ [\step1.myadd.cin_bF$buf4\ \step2.myadd.cin_bF$buf4\] _156_ d_lut_OR2X2
A_1133_ [\step1.myadd.cin_bF$buf3\ \step2.myadd.cin_bF$buf3\] _157_ d_lut_NAND2X1
A_1134_ [\step2.myadd.fa2.sum\ _157_ _156_] _158_ d_lut_NAND3X1
A_1135_ [\step1.myadd.cin_bF$buf2\ \step2.myadd.cin_bF$buf2\] _159_ d_lut_NOR2X1
A_1136_ [\step1.myadd.cin_bF$buf1\ \step2.myadd.cin_bF$buf1\] _160_ d_lut_AND2X2
A_1137_ [_159_ _160_ \step2.myadd.fa2.i0\] _161_ d_lut_OAI21X1
A_1138_ [_161_ _158_] \step3.myadd.fa1.i0\ d_lut_NAND2X1
A_1139_ [\step2.myadd.fa3.sum\ _157_ _156_] _162_ d_lut_NAND3X1
A_1140_ [_159_ _160_ \step2.myadd.fa3.i0\] _163_ d_lut_OAI21X1
A_1141_ [_163_ _162_] \step3.myadd.fa2.i0\ d_lut_NAND2X1
A_1142_ [\step2.myadd.fa4.sum\ _157_ _156_] _164_ d_lut_NAND3X1
A_1143_ [_159_ _160_ \step2.myadd.fa4.i0\] _165_ d_lut_OAI21X1
A_1144_ [_165_ _164_] \step3.myadd.fa3.i0\ d_lut_NAND2X1
A_1145_ [\step2.myadd.fa5.sum\ _157_ _156_] _166_ d_lut_NAND3X1
A_1146_ [_159_ _160_ \step2.myadd.fa5.i0\] _167_ d_lut_OAI21X1
A_1147_ [_167_ _166_] \step3.myadd.fa4.i0\ d_lut_NAND2X1
A_1148_ [\step2.myadd.fa6.sum\ _157_ _156_] _168_ d_lut_NAND3X1
A_1149_ [_159_ _160_ \step2.myadd.fa6.i0\] _169_ d_lut_OAI21X1
A_1150_ [_169_ _168_] \step3.myadd.fa5.i0\ d_lut_NAND2X1
A_1151_ [\step2.myadd.fa7.sum\ _157_ _156_] _170_ d_lut_NAND3X1
A_1152_ [_159_ _160_ \step2.myadd.fa7.i0\] _171_ d_lut_OAI21X1
A_1153_ [_171_ _170_] \step3.myadd.fa6.i0\ d_lut_NAND2X1
A_1154_ [\step2.myadd.fa8.sum\ _157_ _156_] _172_ d_lut_NAND3X1
A_1155_ [_159_ _160_ \step2.myadd.fa7.i0\] _173_ d_lut_OAI21X1
A_1156_ [_173_ _172_] \step3.myadd.fa7.i0\ d_lut_NAND2X1
A_1157_ [\step2.myadd.fa1.sum\ _157_ _156_] _174_ d_lut_NAND3X1
A_1158_ [_159_ _160_ \step2.myadd.fa1.i0\] _175_ d_lut_OAI21X1
A_1159_ [_175_ _174_] \Q_1_\_7_ d_lut_NAND2X1
A_1160_ [\step2.myadd.fa1.i1\ \step2.myadd.cin_bF$buf0\] _179_ d_lut_AND2X2
A_1161_ [\step2.myadd.fa1.i1\ \step2.myadd.cin_bF$buf4\] _180_ d_lut_NOR2X1
A_1162_ [_180_ _179_ \step2.myadd.fa1.i0\] _181_ d_lut_OAI21X1
A_1163_ [\step2.myadd.fa1.i0\] _182_ d_lut_INVX1
A_1164_ [\step2.myadd.fa1.i1\ \step2.myadd.cin_bF$buf3\] _176_ d_lut_NAND2X1
A_1165_ [\step2.myadd.fa1.i1\ \step2.myadd.cin_bF$buf2\] _177_ d_lut_OR2X2
A_1166_ [_182_ _176_ _177_] _178_ d_lut_NAND3X1
A_1167_ [_181_ _178_] \step2.myadd.fa1.sum\ d_lut_NAND2X1
A_1168_ [_182_ _176_ _180_] \step2.myadd.fa1.cout\ d_lut_AOI21X1
A_1169_ [\step2.myadd.fa2.i1\ \step2.myadd.fa1.cout\] _186_ d_lut_AND2X2
A_1170_ [\step2.myadd.fa2.i1\ \step2.myadd.fa1.cout\] _187_ d_lut_NOR2X1
A_1171_ [_187_ _186_ \step2.myadd.fa2.i0\] _188_ d_lut_OAI21X1
A_1172_ [\step2.myadd.fa2.i0\] _189_ d_lut_INVX1
A_1173_ [\step2.myadd.fa2.i1\ \step2.myadd.fa1.cout\] _183_ d_lut_NAND2X1
A_1174_ [\step2.myadd.fa2.i1\ \step2.myadd.fa1.cout\] _184_ d_lut_OR2X2
A_1175_ [_189_ _183_ _184_] _185_ d_lut_NAND3X1
A_1176_ [_188_ _185_] \step2.myadd.fa2.sum\ d_lut_NAND2X1
A_1177_ [_189_ _183_ _187_] \step2.myadd.fa2.cout\ d_lut_AOI21X1
A_1178_ [\step2.myadd.fa3.i1\ \step2.myadd.fa2.cout\] _193_ d_lut_AND2X2
A_1179_ [\step2.myadd.fa3.i1\ \step2.myadd.fa2.cout\] _194_ d_lut_NOR2X1
A_1180_ [_194_ _193_ \step2.myadd.fa3.i0\] _195_ d_lut_OAI21X1
A_1181_ [\step2.myadd.fa3.i0\] _196_ d_lut_INVX1
A_1182_ [\step2.myadd.fa3.i1\ \step2.myadd.fa2.cout\] _190_ d_lut_NAND2X1
A_1183_ [\step2.myadd.fa3.i1\ \step2.myadd.fa2.cout\] _191_ d_lut_OR2X2
A_1184_ [_196_ _190_ _191_] _192_ d_lut_NAND3X1
A_1185_ [_195_ _192_] \step2.myadd.fa3.sum\ d_lut_NAND2X1
A_1186_ [_196_ _190_ _194_] \step2.myadd.fa3.cout\ d_lut_AOI21X1
A_1187_ [\step2.myadd.fa4.i1\ \step2.myadd.fa3.cout\] _200_ d_lut_AND2X2
A_1188_ [\step2.myadd.fa4.i1\ \step2.myadd.fa3.cout\] _201_ d_lut_NOR2X1
A_1189_ [_201_ _200_ \step2.myadd.fa4.i0\] _202_ d_lut_OAI21X1
A_1190_ [\step2.myadd.fa4.i0\] _203_ d_lut_INVX1
A_1191_ [\step2.myadd.fa4.i1\ \step2.myadd.fa3.cout\] _197_ d_lut_NAND2X1
A_1192_ [\step2.myadd.fa4.i1\ \step2.myadd.fa3.cout\] _198_ d_lut_OR2X2
A_1193_ [_203_ _197_ _198_] _199_ d_lut_NAND3X1
A_1194_ [_202_ _199_] \step2.myadd.fa4.sum\ d_lut_NAND2X1
A_1195_ [_203_ _197_ _201_] \step2.myadd.fa4.cout\ d_lut_AOI21X1
A_1196_ [\step2.myadd.fa5.i1\ \step2.myadd.fa4.cout\] _207_ d_lut_AND2X2
A_1197_ [\step2.myadd.fa5.i1\ \step2.myadd.fa4.cout\] _208_ d_lut_NOR2X1
A_1198_ [_208_ _207_ \step2.myadd.fa5.i0\] _209_ d_lut_OAI21X1
A_1199_ [\step2.myadd.fa5.i0\] _210_ d_lut_INVX1
A_1200_ [\step2.myadd.fa5.i1\ \step2.myadd.fa4.cout\] _204_ d_lut_NAND2X1
A_1201_ [\step2.myadd.fa5.i1\ \step2.myadd.fa4.cout\] _205_ d_lut_OR2X2
A_1202_ [_210_ _204_ _205_] _206_ d_lut_NAND3X1
A_1203_ [_209_ _206_] \step2.myadd.fa5.sum\ d_lut_NAND2X1
A_1204_ [_210_ _204_ _208_] \step2.myadd.fa5.cout\ d_lut_AOI21X1
A_1205_ [\step2.myadd.fa6.i1\ \step2.myadd.fa5.cout\] _214_ d_lut_AND2X2
A_1206_ [\step2.myadd.fa6.i1\ \step2.myadd.fa5.cout\] _215_ d_lut_NOR2X1
A_1207_ [_215_ _214_ \step2.myadd.fa6.i0\] _216_ d_lut_OAI21X1
A_1208_ [\step2.myadd.fa6.i0\] _217_ d_lut_INVX1
A_1209_ [\step2.myadd.fa6.i1\ \step2.myadd.fa5.cout\] _211_ d_lut_NAND2X1
A_1210_ [\step2.myadd.fa6.i1\ \step2.myadd.fa5.cout\] _212_ d_lut_OR2X2
A_1211_ [_217_ _211_ _212_] _213_ d_lut_NAND3X1
A_1212_ [_216_ _213_] \step2.myadd.fa6.sum\ d_lut_NAND2X1
A_1213_ [_217_ _211_ _215_] \step2.myadd.fa6.cout\ d_lut_AOI21X1
A_1214_ [\step2.myadd.fa7.i1\ \step2.myadd.fa6.cout\] _221_ d_lut_AND2X2
A_1215_ [\step2.myadd.fa7.i1\ \step2.myadd.fa6.cout\] _222_ d_lut_NOR2X1
A_1216_ [_222_ _221_ \step2.myadd.fa7.i0\] _223_ d_lut_OAI21X1
A_1217_ [\step2.myadd.fa7.i0\] _224_ d_lut_INVX1
A_1218_ [\step2.myadd.fa7.i1\ \step2.myadd.fa6.cout\] _218_ d_lut_NAND2X1
A_1219_ [\step2.myadd.fa7.i1\ \step2.myadd.fa6.cout\] _219_ d_lut_OR2X2
A_1220_ [_224_ _218_ _219_] _220_ d_lut_NAND3X1
A_1221_ [_223_ _220_] \step2.myadd.fa7.sum\ d_lut_NAND2X1
A_1222_ [_224_ _218_ _222_] \step2.myadd.fa7.cout\ d_lut_AOI21X1
A_1223_ [\step2.myadd.fa8.i1\ \step2.myadd.fa7.cout\] _228_ d_lut_AND2X2
A_1224_ [\step2.myadd.fa8.i1\ \step2.myadd.fa7.cout\] _229_ d_lut_NOR2X1
A_1225_ [_229_ _228_ \step2.myadd.fa7.i0\] _230_ d_lut_OAI21X1
A_1226_ [\step2.myadd.fa7.i0\] _231_ d_lut_INVX1
A_1227_ [\step2.myadd.fa8.i1\ \step2.myadd.fa7.cout\] _225_ d_lut_NAND2X1
A_1228_ [\step2.myadd.fa8.i1\ \step2.myadd.fa7.cout\] _226_ d_lut_OR2X2
A_1229_ [_231_ _225_ _226_] _227_ d_lut_NAND3X1
A_1230_ [_230_ _227_] \step2.myadd.fa8.sum\ d_lut_NAND2X1
A_1231_ [\step2.myadd.cin_bF$buf1\] _232_ d_lut_INVX1
A_1232_ [\step1.myadd.x0.i0_bF$buf1\ _232_] _233_ d_lut_NAND2X1
A_1233_ [\step1.myadd.x0.i0_bF$buf0\] _234_ d_lut_INVX1
A_1234_ [\step2.myadd.cin_bF$buf0\ _234_] _235_ d_lut_NAND2X1
A_1235_ [_233_ _235_] \step2.myadd.fa1.i1\ d_lut_NAND2X1
A_1236_ [\step2.myadd.cin_bF$buf4\] _236_ d_lut_INVX1
A_1237_ [\step1.myadd.x1.i0_bF$buf1\ _236_] _237_ d_lut_NAND2X1
A_1238_ [\step1.myadd.x1.i0_bF$buf0\] _238_ d_lut_INVX1
A_1239_ [\step2.myadd.cin_bF$buf3\ _238_] _239_ d_lut_NAND2X1
A_1240_ [_237_ _239_] \step2.myadd.fa2.i1\ d_lut_NAND2X1
A_1241_ [\step2.myadd.cin_bF$buf2\] _240_ d_lut_INVX1
A_1242_ [\step1.myadd.x2.i0_bF$buf1\ _240_] _241_ d_lut_NAND2X1
A_1243_ [\step1.myadd.x2.i0_bF$buf0\] _242_ d_lut_INVX1
A_1244_ [\step2.myadd.cin_bF$buf1\ _242_] _243_ d_lut_NAND2X1
A_1245_ [_241_ _243_] \step2.myadd.fa3.i1\ d_lut_NAND2X1
A_1246_ [\step2.myadd.cin_bF$buf0\] _244_ d_lut_INVX1
A_1247_ [\step1.myadd.x3.i0_bF$buf1\ _244_] _245_ d_lut_NAND2X1
A_1248_ [\step1.myadd.x3.i0_bF$buf0\] _246_ d_lut_INVX1
A_1249_ [\step2.myadd.cin_bF$buf4\ _246_] _247_ d_lut_NAND2X1
A_1250_ [_245_ _247_] \step2.myadd.fa4.i1\ d_lut_NAND2X1
A_1251_ [\step2.myadd.cin_bF$buf3\] _248_ d_lut_INVX1
A_1252_ [\step1.myadd.x4.i0_bF$buf1\ _248_] _249_ d_lut_NAND2X1
A_1253_ [\step1.myadd.x4.i0_bF$buf0\] _250_ d_lut_INVX1
A_1254_ [\step2.myadd.cin_bF$buf2\ _250_] _251_ d_lut_NAND2X1
A_1255_ [_249_ _251_] \step2.myadd.fa5.i1\ d_lut_NAND2X1
A_1256_ [\step2.myadd.cin_bF$buf1\] _252_ d_lut_INVX1
A_1257_ [\step1.myadd.x5.i0_bF$buf1\ _252_] _253_ d_lut_NAND2X1
A_1258_ [\step1.myadd.x5.i0_bF$buf0\] _254_ d_lut_INVX1
A_1259_ [\step2.myadd.cin_bF$buf0\ _254_] _255_ d_lut_NAND2X1
A_1260_ [_253_ _255_] \step2.myadd.fa6.i1\ d_lut_NAND2X1
A_1261_ [\step2.myadd.cin_bF$buf4\] _256_ d_lut_INVX1
A_1262_ [\step1.myadd.x6.i0_bF$buf1\ _256_] _257_ d_lut_NAND2X1
A_1263_ [\step1.myadd.x6.i0_bF$buf0\] _258_ d_lut_INVX1
A_1264_ [\step2.myadd.cin_bF$buf3\ _258_] _259_ d_lut_NAND2X1
A_1265_ [_257_ _259_] \step2.myadd.fa7.i1\ d_lut_NAND2X1
A_1266_ [\step2.myadd.cin_bF$buf2\] _260_ d_lut_INVX1
A_1267_ [\step1.myadd.x7.i0_bF$buf1\ _260_] _261_ d_lut_NAND2X1
A_1268_ [\step1.myadd.x7.i0_bF$buf0\] _262_ d_lut_INVX1
A_1269_ [\step2.myadd.cin_bF$buf1\ _262_] _263_ d_lut_NAND2X1
A_1270_ [_261_ _263_] \step2.myadd.fa8.i1\ d_lut_NAND2X1
A_1271_ [\step2.myadd.cin_bF$buf0\ \step3.myadd.cin_bF$buf4\] _264_ d_lut_OR2X2
A_1272_ [\step2.myadd.cin_bF$buf4\ \step3.myadd.cin_bF$buf3\] _265_ d_lut_NAND2X1
A_1273_ [\step3.myadd.fa2.sum\ _265_ _264_] _266_ d_lut_NAND3X1
A_1274_ [\step2.myadd.cin_bF$buf3\ \step3.myadd.cin_bF$buf2\] _267_ d_lut_NOR2X1
A_1275_ [\step2.myadd.cin_bF$buf2\ \step3.myadd.cin_bF$buf1\] _268_ d_lut_AND2X2
A_1276_ [_267_ _268_ \step3.myadd.fa2.i0\] _269_ d_lut_OAI21X1
A_1277_ [_269_ _266_] \step4.myadd.fa1.i0\ d_lut_NAND2X1
A_1278_ [\step3.myadd.fa3.sum\ _265_ _264_] _270_ d_lut_NAND3X1
A_1279_ [_267_ _268_ \step3.myadd.fa3.i0\] _271_ d_lut_OAI21X1
A_1280_ [_271_ _270_] \step4.myadd.fa2.i0\ d_lut_NAND2X1
A_1281_ [\step3.myadd.fa4.sum\ _265_ _264_] _272_ d_lut_NAND3X1
A_1282_ [_267_ _268_ \step3.myadd.fa4.i0\] _273_ d_lut_OAI21X1
A_1283_ [_273_ _272_] \step4.myadd.fa3.i0\ d_lut_NAND2X1
A_1284_ [\step3.myadd.fa5.sum\ _265_ _264_] _274_ d_lut_NAND3X1
A_1285_ [_267_ _268_ \step3.myadd.fa5.i0\] _275_ d_lut_OAI21X1
A_1286_ [_275_ _274_] \step4.myadd.fa4.i0\ d_lut_NAND2X1
A_1287_ [\step3.myadd.fa6.sum\ _265_ _264_] _276_ d_lut_NAND3X1
A_1288_ [_267_ _268_ \step3.myadd.fa6.i0\] _277_ d_lut_OAI21X1
A_1289_ [_277_ _276_] \step4.myadd.fa5.i0\ d_lut_NAND2X1
A_1290_ [\step3.myadd.fa7.sum\ _265_ _264_] _278_ d_lut_NAND3X1
A_1291_ [_267_ _268_ \step3.myadd.fa7.i0\] _279_ d_lut_OAI21X1
A_1292_ [_279_ _278_] \step4.myadd.fa6.i0\ d_lut_NAND2X1
A_1293_ [\step3.myadd.fa8.sum\ _265_ _264_] _280_ d_lut_NAND3X1
A_1294_ [_267_ _268_ \step3.myadd.fa7.i0\] _281_ d_lut_OAI21X1
A_1295_ [_281_ _280_] \step4.myadd.fa7.i0\ d_lut_NAND2X1
A_1296_ [\step3.myadd.fa1.sum\ _265_ _264_] _282_ d_lut_NAND3X1
A_1297_ [_267_ _268_ \step3.myadd.fa1.i0\] _283_ d_lut_OAI21X1
A_1298_ [_283_ _282_] \Q_2_\_7_ d_lut_NAND2X1
A_1299_ [\step3.myadd.fa1.i1\ \step3.myadd.cin_bF$buf0\] _287_ d_lut_AND2X2
A_1300_ [\step3.myadd.fa1.i1\ \step3.myadd.cin_bF$buf4\] _288_ d_lut_NOR2X1
A_1301_ [_288_ _287_ \step3.myadd.fa1.i0\] _289_ d_lut_OAI21X1
A_1302_ [\step3.myadd.fa1.i0\] _290_ d_lut_INVX1
A_1303_ [\step3.myadd.fa1.i1\ \step3.myadd.cin_bF$buf3\] _284_ d_lut_NAND2X1
A_1304_ [\step3.myadd.fa1.i1\ \step3.myadd.cin_bF$buf2\] _285_ d_lut_OR2X2
A_1305_ [_290_ _284_ _285_] _286_ d_lut_NAND3X1
A_1306_ [_289_ _286_] \step3.myadd.fa1.sum\ d_lut_NAND2X1
A_1307_ [_290_ _284_ _288_] \step3.myadd.fa1.cout\ d_lut_AOI21X1
A_1308_ [\step3.myadd.fa2.i1\ \step3.myadd.fa1.cout\] _294_ d_lut_AND2X2
A_1309_ [\step3.myadd.fa2.i1\ \step3.myadd.fa1.cout\] _295_ d_lut_NOR2X1
A_1310_ [_295_ _294_ \step3.myadd.fa2.i0\] _296_ d_lut_OAI21X1
A_1311_ [\step3.myadd.fa2.i0\] _297_ d_lut_INVX1
A_1312_ [\step3.myadd.fa2.i1\ \step3.myadd.fa1.cout\] _291_ d_lut_NAND2X1
A_1313_ [\step3.myadd.fa2.i1\ \step3.myadd.fa1.cout\] _292_ d_lut_OR2X2
A_1314_ [_297_ _291_ _292_] _293_ d_lut_NAND3X1
A_1315_ [_296_ _293_] \step3.myadd.fa2.sum\ d_lut_NAND2X1
A_1316_ [_297_ _291_ _295_] \step3.myadd.fa2.cout\ d_lut_AOI21X1
A_1317_ [\step3.myadd.fa3.i1\ \step3.myadd.fa2.cout\] _301_ d_lut_AND2X2
A_1318_ [\step3.myadd.fa3.i1\ \step3.myadd.fa2.cout\] _302_ d_lut_NOR2X1
A_1319_ [_302_ _301_ \step3.myadd.fa3.i0\] _303_ d_lut_OAI21X1
A_1320_ [\step3.myadd.fa3.i0\] _304_ d_lut_INVX1
A_1321_ [\step3.myadd.fa3.i1\ \step3.myadd.fa2.cout\] _298_ d_lut_NAND2X1
A_1322_ [\step3.myadd.fa3.i1\ \step3.myadd.fa2.cout\] _299_ d_lut_OR2X2
A_1323_ [_304_ _298_ _299_] _300_ d_lut_NAND3X1
A_1324_ [_303_ _300_] \step3.myadd.fa3.sum\ d_lut_NAND2X1
A_1325_ [_304_ _298_ _302_] \step3.myadd.fa3.cout\ d_lut_AOI21X1
A_1326_ [\step3.myadd.fa4.i1\ \step3.myadd.fa3.cout\] _308_ d_lut_AND2X2
A_1327_ [\step3.myadd.fa4.i1\ \step3.myadd.fa3.cout\] _309_ d_lut_NOR2X1
A_1328_ [_309_ _308_ \step3.myadd.fa4.i0\] _310_ d_lut_OAI21X1
A_1329_ [\step3.myadd.fa4.i0\] _311_ d_lut_INVX1
A_1330_ [\step3.myadd.fa4.i1\ \step3.myadd.fa3.cout\] _305_ d_lut_NAND2X1
A_1331_ [\step3.myadd.fa4.i1\ \step3.myadd.fa3.cout\] _306_ d_lut_OR2X2
A_1332_ [_311_ _305_ _306_] _307_ d_lut_NAND3X1
A_1333_ [_310_ _307_] \step3.myadd.fa4.sum\ d_lut_NAND2X1
A_1334_ [_311_ _305_ _309_] \step3.myadd.fa4.cout\ d_lut_AOI21X1
A_1335_ [\step3.myadd.fa5.i1\ \step3.myadd.fa4.cout\] _315_ d_lut_AND2X2
A_1336_ [\step3.myadd.fa5.i1\ \step3.myadd.fa4.cout\] _316_ d_lut_NOR2X1
A_1337_ [_316_ _315_ \step3.myadd.fa5.i0\] _317_ d_lut_OAI21X1
A_1338_ [\step3.myadd.fa5.i0\] _318_ d_lut_INVX1
A_1339_ [\step3.myadd.fa5.i1\ \step3.myadd.fa4.cout\] _312_ d_lut_NAND2X1
A_1340_ [\step3.myadd.fa5.i1\ \step3.myadd.fa4.cout\] _313_ d_lut_OR2X2
A_1341_ [_318_ _312_ _313_] _314_ d_lut_NAND3X1
A_1342_ [_317_ _314_] \step3.myadd.fa5.sum\ d_lut_NAND2X1
A_1343_ [_318_ _312_ _316_] \step3.myadd.fa5.cout\ d_lut_AOI21X1
A_1344_ [\step3.myadd.fa6.i1\ \step3.myadd.fa5.cout\] _322_ d_lut_AND2X2
A_1345_ [\step3.myadd.fa6.i1\ \step3.myadd.fa5.cout\] _323_ d_lut_NOR2X1
A_1346_ [_323_ _322_ \step3.myadd.fa6.i0\] _324_ d_lut_OAI21X1
A_1347_ [\step3.myadd.fa6.i0\] _325_ d_lut_INVX1
A_1348_ [\step3.myadd.fa6.i1\ \step3.myadd.fa5.cout\] _319_ d_lut_NAND2X1
A_1349_ [\step3.myadd.fa6.i1\ \step3.myadd.fa5.cout\] _320_ d_lut_OR2X2
A_1350_ [_325_ _319_ _320_] _321_ d_lut_NAND3X1
A_1351_ [_324_ _321_] \step3.myadd.fa6.sum\ d_lut_NAND2X1
A_1352_ [_325_ _319_ _323_] \step3.myadd.fa6.cout\ d_lut_AOI21X1
A_1353_ [\step3.myadd.fa7.i1\ \step3.myadd.fa6.cout\] _329_ d_lut_AND2X2
A_1354_ [\step3.myadd.fa7.i1\ \step3.myadd.fa6.cout\] _330_ d_lut_NOR2X1
A_1355_ [_330_ _329_ \step3.myadd.fa7.i0\] _331_ d_lut_OAI21X1
A_1356_ [\step3.myadd.fa7.i0\] _332_ d_lut_INVX1
A_1357_ [\step3.myadd.fa7.i1\ \step3.myadd.fa6.cout\] _326_ d_lut_NAND2X1
A_1358_ [\step3.myadd.fa7.i1\ \step3.myadd.fa6.cout\] _327_ d_lut_OR2X2
A_1359_ [_332_ _326_ _327_] _328_ d_lut_NAND3X1
A_1360_ [_331_ _328_] \step3.myadd.fa7.sum\ d_lut_NAND2X1
A_1361_ [_332_ _326_ _330_] \step3.myadd.fa7.cout\ d_lut_AOI21X1
A_1362_ [\step3.myadd.fa8.i1\ \step3.myadd.fa7.cout\] _336_ d_lut_AND2X2
A_1363_ [\step3.myadd.fa8.i1\ \step3.myadd.fa7.cout\] _337_ d_lut_NOR2X1
A_1364_ [_337_ _336_ \step3.myadd.fa7.i0\] _338_ d_lut_OAI21X1
A_1365_ [\step3.myadd.fa7.i0\] _339_ d_lut_INVX1
A_1366_ [\step3.myadd.fa8.i1\ \step3.myadd.fa7.cout\] _333_ d_lut_NAND2X1
A_1367_ [\step3.myadd.fa8.i1\ \step3.myadd.fa7.cout\] _334_ d_lut_OR2X2
A_1368_ [_339_ _333_ _334_] _335_ d_lut_NAND3X1
A_1369_ [_338_ _335_] \step3.myadd.fa8.sum\ d_lut_NAND2X1
A_1370_ [\step3.myadd.cin_bF$buf1\] _340_ d_lut_INVX1
A_1371_ [\step1.myadd.x0.i0_bF$buf3\ _340_] _341_ d_lut_NAND2X1
A_1372_ [\step1.myadd.x0.i0_bF$buf2\] _342_ d_lut_INVX1
A_1373_ [\step3.myadd.cin_bF$buf0\ _342_] _343_ d_lut_NAND2X1
A_1374_ [_341_ _343_] \step3.myadd.fa1.i1\ d_lut_NAND2X1
A_1375_ [\step3.myadd.cin_bF$buf4\] _344_ d_lut_INVX1
A_1376_ [\step1.myadd.x1.i0_bF$buf3\ _344_] _345_ d_lut_NAND2X1
A_1377_ [\step1.myadd.x1.i0_bF$buf2\] _346_ d_lut_INVX1
A_1378_ [\step3.myadd.cin_bF$buf3\ _346_] _347_ d_lut_NAND2X1
A_1379_ [_345_ _347_] \step3.myadd.fa2.i1\ d_lut_NAND2X1
A_1380_ [\step3.myadd.cin_bF$buf2\] _348_ d_lut_INVX1
A_1381_ [\step1.myadd.x2.i0_bF$buf3\ _348_] _349_ d_lut_NAND2X1