* NGSPICE file created from fir_pe.ext - technology: scmos

.subckt NAND2X1 A B Y vdd gnd
M1000 a_26_14# A gnd gnd nfet w=6u l=0.6u
+  ad=2.7p pd=6.9u as=12.600001p ps=16.2u
M1001 vdd B Y vdd pfet w=6u l=0.6u
+  ad=12.600001p pd=16.2u as=7.200001p ps=8.400001u
M1002 Y B a_26_14# gnd nfet w=6u l=0.6u
+  ad=16.2p pd=17.400002u as=2.7p ps=6.9u
M1003 Y A vdd vdd pfet w=6u l=0.6u
+  ad=7.200001p pd=8.400001u as=12.600001p ps=16.2u
.ends

.subckt OAI22X1 A B C D Y vdd gnd
M1000 Y D a_6_14# gnd nfet w=6u l=0.6u
+  ad=7.200001p pd=8.400001u as=7.200001p ps=8.400001u
M1001 vdd C a_64_166# vdd pfet w=12u l=0.6u
+  ad=25.200003p pd=28.200003u as=5.4p ps=12.900001u
M1002 Y B a_24_166# vdd pfet w=12u l=0.6u
+  ad=23.400002p pd=15.900001u as=5.4p ps=12.900001u
M1003 gnd A a_6_14# gnd nfet w=6u l=0.6u
+  ad=7.200001p pd=8.400001u as=12.600001p ps=16.2u
M1004 a_64_166# D Y vdd pfet w=12u l=0.6u
+  ad=5.4p pd=12.900001u as=23.400002p ps=15.900001u
M1005 a_24_166# A vdd vdd pfet w=12u l=0.6u
+  ad=5.4p pd=12.900001u as=25.200003p ps=28.200003u
M1006 a_6_14# C Y gnd nfet w=6u l=0.6u
+  ad=12.600001p pd=16.2u as=7.200001p ps=8.400001u
M1007 a_6_14# B gnd gnd nfet w=6u l=0.6u
+  ad=7.200001p pd=8.400001u as=7.200001p ps=8.400001u
.ends

.subckt DFFPOSX1 D CLK Q vdd gnd
M1000 a_189_226# CLK a_165_14# vdd pfet w=3u l=0.6u
+  ad=0.9p pd=3.6u as=6.750001p ps=8.400001u
M1001 a_87_10# a_59_14# vdd vdd pfet w=6u l=0.6u
+  ad=12.600001p pd=16.2u as=7.200001p ps=8.400001u
M1002 a_59_14# CLK a_49_206# vdd pfet w=6u l=0.6u
+  ad=7.200001p pd=8.400001u as=5.4p ps=7.8u
M1003 a_87_10# a_59_14# gnd gnd nfet w=3u l=0.6u
+  ad=6.300001p pd=10.200001u as=4.05p ps=5.7u
M1004 a_165_14# a_11_14# a_161_206# vdd pfet w=6u l=0.6u
+  ad=6.750001p pd=8.400001u as=1.8p ps=6.6u
M1005 gnd CLK a_11_14# gnd nfet w=6u l=0.6u
+  ad=5.85p pd=8.400001u as=12.600001p ps=16.2u
M1006 gnd a_87_10# a_81_14# gnd nfet w=3u l=0.6u
+  ad=4.05p pd=5.7u as=1.35p ps=3.9u
M1007 Q a_165_14# gnd gnd nfet w=6u l=0.6u
+  ad=12.600001p pd=16.2u as=6.975p ps=8.700001u
M1008 a_157_14# a_87_10# gnd gnd nfet w=3u l=0.6u
+  ad=0.9p pd=3.6u as=6.300001p ps=10.200001u
M1009 vdd CLK a_11_14# vdd pfet w=12u l=0.6u
+  ad=11.250001p pd=14.400001u as=25.200003p ps=28.200003u
M1010 a_49_206# D vdd vdd pfet w=6u l=0.6u
+  ad=5.4p pd=7.8u as=11.250001p ps=14.400001u
M1011 vdd Q a_189_226# vdd pfet w=3u l=0.6u
+  ad=10.125001p pd=14.700001u as=0.9p ps=3.6u
M1012 a_165_14# CLK a_157_14# gnd nfet w=3u l=0.6u
+  ad=4.05p pd=5.7u as=0.9p ps=3.6u
M1013 a_49_14# D gnd gnd nfet w=3u l=0.6u
+  ad=1.35p pd=3.9u as=5.85p ps=8.400001u
M1014 a_85_206# a_11_14# a_59_14# vdd pfet w=6u l=0.6u
+  ad=3.6p pd=7.2u as=7.200001p ps=8.400001u
M1015 Q a_165_14# vdd vdd pfet w=12u l=0.6u
+  ad=25.200003p pd=28.200003u as=10.125001p ps=14.700001u
M1016 vdd a_87_10# a_85_206# vdd pfet w=6u l=0.6u
+  ad=7.200001p pd=8.400001u as=3.6p ps=7.2u
M1017 a_59_14# a_11_14# a_49_14# gnd nfet w=3u l=0.6u
+  ad=4.05p pd=5.7u as=1.35p ps=3.9u
M1018 a_161_206# a_87_10# vdd vdd pfet w=6u l=0.6u
+  ad=1.8p pd=6.6u as=12.600001p ps=16.2u
M1019 a_187_14# a_11_14# a_165_14# gnd nfet w=3u l=0.6u
+  ad=1.35p pd=3.9u as=4.05p ps=5.7u
M1020 gnd Q a_187_14# gnd nfet w=3u l=0.6u
+  ad=6.975p pd=8.700001u as=1.35p ps=3.9u
M1021 a_81_14# CLK a_59_14# gnd nfet w=3u l=0.6u
+  ad=1.35p pd=3.9u as=4.05p ps=5.7u
.ends

.subckt OAI21X1 A B C Y vdd gnd
M1000 Y C a_6_14# gnd nfet w=6u l=0.6u
+  ad=12.600001p pd=16.2u as=7.200001p ps=8.400001u
M1001 Y B a_26_166# vdd pfet w=12u l=0.6u
+  ad=12.150001p pd=14.400001u as=9p ps=13.500001u
M1002 vdd C Y vdd pfet w=6u l=0.6u
+  ad=12.600001p pd=16.2u as=12.150001p ps=14.400001u
M1003 gnd A a_6_14# gnd nfet w=6u l=0.6u
+  ad=7.200001p pd=8.400001u as=12.600001p ps=16.2u
M1004 a_6_14# B gnd gnd nfet w=6u l=0.6u
+  ad=7.200001p pd=8.400001u as=7.200001p ps=8.400001u
M1005 a_26_166# A vdd vdd pfet w=12u l=0.6u
+  ad=9p pd=13.500001u as=25.200003p ps=28.200003u
.ends

.subckt INVX1 A Y vdd gnd
M1000 Y A gnd gnd nfet w=3u l=0.6u
+  ad=6.300001p pd=10.200001u as=6.300001p ps=10.200001u
M1001 Y A vdd vdd pfet w=6u l=0.6u
+  ad=12.600001p pd=16.2u as=12.600001p ps=16.2u
.ends

.subckt XNOR2X1 A B Y vdd gnd
M1000 a_74_166# A Y vdd pfet w=12u l=0.6u
+  ad=3.6p pd=12.6u as=14.400002p ps=14.400001u
M1001 a_29_58# B vdd vdd pfet w=12u l=0.6u
+  ad=25.200003p pd=28.200003u as=16.2p ps=14.700001u
M1002 gnd A a_6_14# gnd nfet w=6u l=0.6u
+  ad=7.200001p pd=8.400001u as=12.600001p ps=16.2u
M1003 vdd A a_6_14# vdd pfet w=12u l=0.6u
+  ad=14.400002p pd=14.400001u as=25.200003p ps=28.200003u
M1004 Y A a_44_14# gnd nfet w=6u l=0.6u
+  ad=7.200001p pd=8.400001u as=1.8p ps=6.6u
M1005 a_29_58# B gnd gnd nfet w=6u l=0.6u
+  ad=12.600001p pd=16.2u as=8.1p ps=8.700001u
M1006 vdd B a_74_166# vdd pfet w=12u l=0.6u
+  ad=16.2p pd=14.700001u as=3.6p ps=12.6u
M1007 Y a_6_14# a_44_166# vdd pfet w=12u l=0.6u
+  ad=14.400002p pd=14.400001u as=5.4p ps=12.900001u
M1008 a_44_14# a_29_58# gnd gnd nfet w=6u l=0.6u
+  ad=1.8p pd=6.6u as=7.200001p ps=8.400001u
M1009 a_72_14# a_6_14# Y gnd nfet w=6u l=0.6u
+  ad=2.7p pd=6.9u as=7.200001p ps=8.400001u
M1010 a_44_166# a_29_58# vdd vdd pfet w=12u l=0.6u
+  ad=5.4p pd=12.900001u as=14.400002p ps=14.400001u
M1011 gnd B a_72_14# gnd nfet w=6u l=0.6u
+  ad=8.1p pd=8.700001u as=2.7p ps=6.9u
.ends

.subckt NOR2X1 A B Y vdd gnd
M1000 Y A gnd gnd nfet w=3u l=0.6u
+  ad=3.6p pd=5.4u as=6.300001p ps=10.200001u
M1001 a_24_166# A vdd vdd pfet w=12u l=0.6u
+  ad=9p pd=13.500001u as=25.200003p ps=28.200003u
M1002 gnd B Y gnd nfet w=3u l=0.6u
+  ad=6.300001p pd=10.200001u as=3.6p ps=5.4u
M1003 Y B a_24_166# vdd pfet w=12u l=0.6u
+  ad=25.200003p pd=28.200003u as=9p ps=13.500001u
.ends

.subckt NAND3X1 A B C Y vdd gnd
M1000 a_24_14# A gnd gnd nfet w=9u l=0.6u
+  ad=4.05p pd=9.900001u as=18.900002p ps=22.2u
M1001 vdd B Y vdd pfet w=6u l=0.6u
+  ad=7.200001p pd=8.400001u as=7.200001p ps=8.400001u
M1002 a_34_14# B a_24_14# gnd nfet w=9u l=0.6u
+  ad=6.750001p pd=10.500001u as=4.05p ps=9.900001u
M1003 Y C a_34_14# gnd nfet w=9u l=0.6u
+  ad=18.900002p pd=22.2u as=6.750001p ps=10.500001u
M1004 Y C vdd vdd pfet w=6u l=0.6u
+  ad=12.600001p pd=16.2u as=7.200001p ps=8.400001u
M1005 Y A vdd vdd pfet w=6u l=0.6u
+  ad=7.200001p pd=8.400001u as=12.600001p ps=16.2u
.ends

.subckt BUFX2 A Y vdd gnd
M1000 gnd A a_6_14# gnd nfet w=3u l=0.6u
+  ad=6.075p pd=8.400001u as=6.300001p ps=10.200001u
M1001 Y a_6_14# gnd gnd nfet w=6u l=0.6u
+  ad=12.600001p pd=16.2u as=6.075p ps=8.400001u
M1002 Y a_6_14# vdd vdd pfet w=12u l=0.6u
+  ad=25.200003p pd=28.200003u as=12.150001p ps=14.400001u
M1003 vdd A a_6_14# vdd pfet w=6u l=0.6u
+  ad=12.150001p pd=14.400001u as=12.600001p ps=16.2u
.ends

.subckt AOI21X1 A B C Y vdd gnd
M1000 a_28_14# A gnd gnd nfet w=6u l=0.6u
+  ad=2.7p pd=6.9u as=12.600001p ps=16.2u
M1001 Y C a_6_166# vdd pfet w=12u l=0.6u
+  ad=25.200003p pd=28.200003u as=14.400002p ps=14.400001u
M1002 Y B a_28_14# gnd nfet w=6u l=0.6u
+  ad=5.85p pd=8.400001u as=2.7p ps=6.9u
M1003 vdd A a_6_166# vdd pfet w=12u l=0.6u
+  ad=14.400002p pd=14.400001u as=25.200003p ps=28.200003u
M1004 gnd C Y gnd nfet w=3u l=0.6u
+  ad=6.300001p pd=10.200001u as=5.85p ps=8.400001u
M1005 a_6_166# B vdd vdd pfet w=12u l=0.6u
+  ad=14.400002p pd=14.400001u as=14.400002p ps=14.400001u
.ends

.subckt AOI22X1 A B C D Y vdd gnd
M1000 a_26_14# A gnd gnd nfet w=6u l=0.6u
+  ad=2.7p pd=6.9u as=12.600001p ps=16.2u
M1001 Y D a_6_166# vdd pfet w=12u l=0.6u
+  ad=14.400002p pd=14.400001u as=14.400002p ps=14.400001u
M1002 vdd A a_6_166# vdd pfet w=12u l=0.6u
+  ad=14.400002p pd=14.400001u as=25.200003p ps=28.200003u
M1003 Y B a_26_14# gnd nfet w=6u l=0.6u
+  ad=7.200001p pd=8.400001u as=2.7p ps=6.9u
M1004 a_56_14# D Y gnd nfet w=6u l=0.6u
+  ad=2.7p pd=6.9u as=7.200001p ps=8.400001u
M1005 a_6_166# C Y vdd pfet w=12u l=0.6u
+  ad=25.200003p pd=28.200003u as=14.400002p ps=14.400001u
M1006 a_6_166# B vdd vdd pfet w=12u l=0.6u
+  ad=14.400002p pd=14.400001u as=14.400002p ps=14.400001u
M1007 gnd C a_56_14# gnd nfet w=6u l=0.6u
+  ad=12.600001p pd=16.2u as=2.7p ps=6.9u
.ends

.subckt AND2X2 A B Y vdd gnd
M1000 a_24_14# A a_6_14# gnd nfet w=6u l=0.6u
+  ad=2.7p pd=6.9u as=12.600001p ps=16.2u
M1001 Y a_6_14# vdd vdd pfet w=12u l=0.6u
+  ad=25.200003p pd=28.200003u as=11.700001p ps=14.400001u
M1002 vdd B a_6_14# vdd pfet w=6u l=0.6u
+  ad=11.700001p pd=14.400001u as=7.200001p ps=8.400001u
M1003 gnd B a_24_14# gnd nfet w=6u l=0.6u
+  ad=7.200001p pd=8.400001u as=2.7p ps=6.9u
M1004 Y a_6_14# gnd gnd nfet w=6u l=0.6u
+  ad=12.600001p pd=16.2u as=7.200001p ps=8.400001u
M1005 a_6_14# A vdd vdd pfet w=6u l=0.6u
+  ad=7.200001p pd=8.400001u as=12.600001p ps=16.2u
.ends

.subckt XOR2X1 A B Y vdd gnd
M1000 a_74_166# a_6_14# Y vdd pfet w=12u l=0.6u
+  ad=5.4p pd=12.900001u as=14.400002p ps=14.400001u
M1001 a_28_58# B vdd vdd pfet w=12u l=0.6u
+  ad=25.200003p pd=28.200003u as=14.400002p ps=14.400001u
M1002 a_74_14# A Y gnd nfet w=6u l=0.6u
+  ad=2.7p pd=6.9u as=7.200001p ps=8.400001u
M1003 gnd A a_6_14# gnd nfet w=6u l=0.6u
+  ad=7.200001p pd=8.400001u as=12.600001p ps=16.2u
M1004 vdd A a_6_14# vdd pfet w=12u l=0.6u
+  ad=14.400002p pd=14.400001u as=25.200003p ps=28.200003u
M1005 gnd B a_74_14# gnd nfet w=6u l=0.6u
+  ad=7.200001p pd=8.400001u as=2.7p ps=6.9u
M1006 a_28_58# B gnd gnd nfet w=6u l=0.6u
+  ad=12.600001p pd=16.2u as=7.200001p ps=8.400001u
M1007 Y A a_44_166# vdd pfet w=12u l=0.6u
+  ad=14.400002p pd=14.400001u as=5.4p ps=12.900001u
M1008 a_44_14# a_28_58# gnd gnd nfet w=6u l=0.6u
+  ad=2.7p pd=6.9u as=7.200001p ps=8.400001u
M1009 vdd B a_74_166# vdd pfet w=12u l=0.6u
+  ad=14.400002p pd=14.400001u as=5.4p ps=12.900001u
M1010 Y a_6_14# a_44_14# gnd nfet w=6u l=0.6u
+  ad=7.200001p pd=8.400001u as=2.7p ps=6.9u
M1011 a_44_166# a_28_58# vdd vdd pfet w=12u l=0.6u
+  ad=5.4p pd=12.900001u as=14.400002p ps=14.400001u
.ends

.subckt OR2X2 A B Y vdd gnd
M1000 Y a_6_166# gnd gnd nfet w=6u l=0.6u
+  ad=12.600001p pd=16.2u as=6.300001p ps=8.400001u
M1001 vdd B a_24_166# vdd pfet w=12u l=0.6u
+  ad=14.400002p pd=14.400001u as=5.4p ps=12.900001u
M1002 a_6_166# A gnd gnd nfet w=3u l=0.6u
+  ad=3.6p pd=5.4u as=6.300001p ps=10.200001u
M1003 a_24_166# A a_6_166# vdd pfet w=12u l=0.6u
+  ad=5.4p pd=12.900001u as=25.200003p ps=28.200003u
M1004 Y a_6_166# vdd vdd pfet w=12u l=0.6u
+  ad=25.200003p pd=28.200003u as=14.400002p ps=14.400001u
M1005 gnd B a_6_166# gnd nfet w=3u l=0.6u
+  ad=6.300001p pd=8.400001u as=3.6p ps=5.4u
.ends

.subckt CLKBUF1 A Y vdd gnd
M1000 a_64_14# a_24_14# gnd gnd nfet w=6u l=0.6u
+  ad=7.200001p pd=8.400001u as=7.200001p ps=8.400001u
M1001 Y a_104_14# gnd gnd nfet w=6u l=0.6u
+  ad=7.200001p pd=8.400001u as=7.200001p ps=8.400001u
M1002 a_104_14# a_64_14# vdd vdd pfet w=12u l=0.6u
+  ad=14.400002p pd=14.400001u as=14.400002p ps=14.400001u
M1003 Y a_104_14# vdd vdd pfet w=12u l=0.6u
+  ad=14.400002p pd=14.400001u as=14.400002p ps=14.400001u
M1004 a_24_14# A gnd gnd nfet w=6u l=0.6u
+  ad=7.200001p pd=8.400001u as=12.600001p ps=16.2u
M1005 a_64_14# a_24_14# vdd vdd pfet w=12u l=0.6u
+  ad=14.400002p pd=14.400001u as=14.400002p ps=14.400001u
M1006 a_24_14# A vdd vdd pfet w=12u l=0.6u
+  ad=14.400002p pd=14.400001u as=25.200003p ps=28.200003u
M1007 gnd a_24_14# a_64_14# gnd nfet w=6u l=0.6u
+  ad=7.200001p pd=8.400001u as=7.200001p ps=8.400001u
M1008 a_104_14# a_64_14# gnd gnd nfet w=6u l=0.6u
+  ad=7.200001p pd=8.400001u as=7.200001p ps=8.400001u
M1009 gnd a_104_14# Y gnd nfet w=6u l=0.6u
+  ad=12.600001p pd=16.2u as=7.200001p ps=8.400001u
M1010 vdd a_104_14# Y vdd pfet w=12u l=0.6u
+  ad=25.200003p pd=28.200003u as=14.400002p ps=14.400001u
M1011 gnd A a_24_14# gnd nfet w=6u l=0.6u
+  ad=7.200001p pd=8.400001u as=7.200001p ps=8.400001u
M1012 vdd a_64_14# a_104_14# vdd pfet w=12u l=0.6u
+  ad=14.400002p pd=14.400001u as=14.400002p ps=14.400001u
M1013 gnd a_64_14# a_104_14# gnd nfet w=6u l=0.6u
+  ad=7.200001p pd=8.400001u as=7.200001p ps=8.400001u
M1014 vdd a_24_14# a_64_14# vdd pfet w=12u l=0.6u
+  ad=14.400002p pd=14.400001u as=14.400002p ps=14.400001u
M1015 vdd A a_24_14# vdd pfet w=12u l=0.6u
+  ad=14.400002p pd=14.400001u as=14.400002p ps=14.400001u
.ends

.subckt INVX2 A Y vdd gnd
M1000 Y A gnd gnd nfet w=6u l=0.6u
+  ad=12.600001p pd=16.2u as=12.600001p ps=16.2u
M1001 Y A vdd vdd pfet w=12u l=0.6u
+  ad=25.200003p pd=28.200003u as=25.200003p ps=28.200003u
.ends

.subckt INVX8 A Y vdd gnd
M1000 Y A gnd gnd nfet w=6u l=0.6u
+  ad=7.200001p pd=8.400001u as=7.200001p ps=8.400001u
M1001 Y A gnd gnd nfet w=6u l=0.6u
+  ad=7.200001p pd=8.400001u as=12.600001p ps=16.2u
M1002 Y A vdd vdd pfet w=12u l=0.6u
+  ad=14.400002p pd=14.400001u as=14.400002p ps=14.400001u
M1003 Y A vdd vdd pfet w=12u l=0.6u
+  ad=14.400002p pd=14.400001u as=25.200003p ps=28.200003u
M1004 gnd A Y gnd nfet w=6u l=0.6u
+  ad=12.600001p pd=16.2u as=7.200001p ps=8.400001u
M1005 gnd A Y gnd nfet w=6u l=0.6u
+  ad=7.200001p pd=8.400001u as=7.200001p ps=8.400001u
M1006 vdd A Y vdd pfet w=12u l=0.6u
+  ad=25.200003p pd=28.200003u as=14.400002p ps=14.400001u
M1007 vdd A Y vdd pfet w=12u l=0.6u
+  ad=14.400002p pd=14.400001u as=14.400002p ps=14.400001u
.ends

.subckt fir_pe gnd vdd Cin[5] Cin[4] Cin[3] Cin[2] Cin[1] Cin[0] Rdy Vld Xin[3] Xin[2]
+ Xin[1] Xin[0] Xout[3] Xout[2] Xout[1] Xout[0] Yin[3] Yin[2] Yin[1] Yin[0] Yout[3]
+ Yout[2] Yout[1] Yout[0] clk
X_1270_ _1270_/A _1270_/B _1275_/C vdd gnd NAND2X1
X_1399_ _738_/B _813_/A _1399_/C _1399_/D _1500_/D vdd gnd OAI22X1
X_1468_ _804_/Y _1503_/CLK _802_/A vdd gnd DFFPOSX1
X_981_ _985_/A _985_/B _984_/A _982_/C vdd gnd OAI21X1
X_1253_ _1257_/B _1254_/A vdd gnd INVX1
X_1322_ _1322_/A _1329_/A _1324_/B vdd gnd XNOR2X1
X_1184_ _1325_/B _1184_/B _1184_/C _1481_/D vdd gnd OAI21X1
X_895_ _933_/D _895_/B _895_/C _904_/B vdd gnd OAI21X1
X_964_ _969_/D _969_/C _965_/A vdd gnd NAND2X1
X_1236_ _1236_/A _1236_/B _1483_/D vdd gnd NAND2X1
X_1305_ _1307_/A _1306_/A _1309_/A vdd gnd NOR2X1
X_1098_ _1212_/B _1098_/B _1099_/B vdd gnd NAND2X1
X_1167_ _1202_/B _1173_/B _1174_/C _1192_/A vdd gnd NAND3X1
XBUFX2_insert0 _1526_/Q _812_/A vdd gnd BUFX2
X_878_ _878_/A _915_/C vdd gnd INVX1
X_947_ _947_/A _947_/B _947_/C _952_/A vdd gnd AOI21X1
X_1021_ _974_/A _1089_/C _1036_/B _1025_/A vdd gnd NAND3X1
X_1219_ _1356_/B _798_/A _1219_/C _1482_/D vdd gnd OAI21X1
X_732_ _732_/A _733_/B vdd gnd INVX1
X_801_ _817_/A _801_/B _801_/C _801_/Y vdd gnd OAI21X1
X_1004_ _990_/A Cin[2] _998_/Y _999_/Y _1010_/B vdd gnd AOI22X1
X_1484_ _1484_/D _1485_/CLK _1484_/Q vdd gnd DFFPOSX1
X_1398_ _810_/B _1402_/B _813_/A _1399_/C vdd gnd OAI21X1
X_1467_ _801_/Y _1485_/CLK _799_/A vdd gnd DFFPOSX1
X_980_ _980_/A Cin[4] _984_/A vdd gnd AND2X2
X_1252_ _1252_/A _1252_/B _1252_/C _1254_/B vdd gnd AOI21X1
X_1321_ _1328_/B _1321_/B _1329_/A vdd gnd NOR2X1
X_1183_ _1481_/Q _1325_/B _1184_/C vdd gnd NAND2X1
X_1519_ _1519_/D _1521_/CLK _977_/A vdd gnd DFFPOSX1
X_894_ _933_/C _894_/B _894_/C _904_/A vdd gnd NAND3X1
X_963_ _969_/A _969_/B _965_/B vdd gnd NAND2X1
X_1166_ _1193_/C _1169_/C _1169_/A _1202_/B vdd gnd NAND3X1
X_1235_ _798_/A _1235_/B _1235_/C _1236_/B vdd gnd NAND3X1
X_1304_ _1304_/A _1326_/C _1307_/A vdd gnd AND2X2
XBUFX2_insert1 _1526_/Q _816_/B vdd gnd BUFX2
X_1097_ _1480_/Q _1325_/B _1147_/C vdd gnd NAND2X1
X_877_ _877_/A _917_/A vdd gnd INVX1
X_946_ _946_/A _989_/B _989_/A _952_/B vdd gnd AOI21X1
X_1020_ _1020_/A _1020_/B _976_/Y _1036_/B vdd gnd OAI21X1
X_1149_ _1191_/A _1214_/B _1149_/C _1182_/A vdd gnd AOI21X1
X_1218_ _798_/A _1218_/B _1232_/C _1219_/C vdd gnd NAND3X1
X_731_ _743_/C _741_/A vdd gnd INVX1
X_800_ _804_/A _800_/B _801_/C vdd gnd NAND2X1
X_929_ _929_/A _929_/B _931_/C vdd gnd NAND2X1
X_1003_ _947_/C _1003_/B _946_/A _1078_/C vdd gnd OAI21X1
X_1483_ _1483_/D _1485_/CLK _1483_/Q vdd gnd DFFPOSX1
X_1535_ _745_/Y Yout[3] vdd gnd BUFX2
X_1397_ _808_/A _1401_/C _1399_/D vdd gnd NOR2X1
X_1466_ _798_/Y _1485_/CLK _796_/A vdd gnd DFFPOSX1
X_1320_ _1328_/C _1321_/B vdd gnd INVX1
X_1182_ _1182_/A _1214_/C _1184_/B vdd gnd XOR2X1
X_1251_ _1251_/A _1251_/B _1251_/C _1252_/C vdd gnd OAI21X1
X_1449_ _1451_/A _979_/A _1449_/C _1520_/D vdd gnd OAI21X1
X_1518_ _1518_/D _1521_/CLK _922_/A vdd gnd DFFPOSX1
X_893_ _893_/A _893_/B _893_/C _904_/C vdd gnd AOI21X1
X_962_ _971_/A _971_/C _962_/C _969_/B vdd gnd NAND3X1
X_1303_ _781_/A _966_/A _1326_/C vdd gnd NAND2X1
X_1096_ _843_/B _1096_/B _1096_/C _1479_/D vdd gnd OAI21X1
X_1165_ _1165_/A _998_/B _1169_/C vdd gnd NOR2X1
X_1234_ _1241_/B _1234_/B _1235_/B vdd gnd NAND2X1
XBUFX2_insert2 _1526_/Q _917_/B vdd gnd BUFX2
X_945_ _951_/B _951_/C _952_/C _957_/B vdd gnd NAND3X1
X_876_ _876_/A _917_/B _876_/C _876_/D _876_/Y vdd gnd OAI22X1
X_1079_ _987_/Y _1079_/B _1079_/C _1101_/C vdd gnd OAI21X1
X_1148_ _1214_/A _1149_/C vdd gnd INVX1
X_1217_ _1217_/A _1252_/A _1217_/C _1232_/C vdd gnd OAI21X1
X_730_ _730_/A _730_/B _730_/C _730_/Y vdd gnd OAI21X1
X_928_ _928_/A _931_/B vdd gnd INVX1
X_859_ _859_/A _859_/B _859_/C _879_/C vdd gnd OAI21X1
X_1002_ _990_/A _997_/B _994_/A _992_/B _1003_/B vdd gnd AOI22X1
X_1482_ _1482_/D _1485_/CLK _1482_/Q vdd gnd DFFPOSX1
X_1465_ _795_/Y _1503_/CLK _793_/A vdd gnd DFFPOSX1
X_1534_ _741_/Y Yout[2] vdd gnd BUFX2
X_1396_ _1402_/B _1401_/C vdd gnd INVX1
X_1181_ _1189_/A _1188_/A _1214_/C vdd gnd AND2X2
X_1250_ _1251_/B _1252_/B vdd gnd INVX1
X_1448_ _1451_/A Xin[2] _1449_/C vdd gnd NAND2X1
X_1517_ _1517_/D _1517_/CLK _776_/B vdd gnd DFFPOSX1
X_1379_ _1381_/A _1395_/A _1383_/A vdd gnd NOR2X1
X_961_ _961_/A _961_/B _961_/C _962_/C vdd gnd OAI21X1
X_892_ _905_/C _905_/B _905_/A _955_/B vdd gnd AOI21X1
X_1233_ _1233_/A _1242_/B _1241_/A _1234_/B vdd gnd OAI21X1
X_1302_ _781_/A _966_/A _1304_/A vdd gnd OR2X2
X_1095_ _1479_/Q _843_/B _1096_/C vdd gnd NAND2X1
X_1164_ _998_/B _1165_/A _1164_/C _1173_/B vdd gnd OAI21X1
XBUFX2_insert3 _1526_/Q _813_/A vdd gnd BUFX2
X_944_ _989_/A _989_/B _946_/A _951_/C vdd gnd NAND3X1
X_875_ _917_/B _878_/A _876_/D vdd gnd NAND2X1
X_1216_ _1233_/A _1217_/C vdd gnd INVX1
X_1078_ _1078_/A _995_/Y _1078_/C _1079_/B vdd gnd AOI21X1
X_1147_ _1325_/B _1147_/B _1147_/C _1480_/D vdd gnd OAI21X1
X_858_ _879_/B _879_/A _871_/C _868_/B vdd gnd NAND3X1
X_927_ _928_/A _927_/B _927_/C _950_/A vdd gnd NAND3X1
X_789_ _917_/B _789_/B _789_/C _789_/Y vdd gnd OAI21X1
X_1001_ _995_/Y _1078_/A _989_/Y _1016_/B vdd gnd NAND3X1
XCLKBUF1_insert10 clk _1521_/CLK vdd gnd CLKBUF1
X_1481_ _1481_/D _1485_/CLK _1481_/Q vdd gnd DFFPOSX1
X_1395_ _1395_/A _1395_/B _1395_/C _1402_/B vdd gnd AOI21X1
X_1464_ _792_/Y _1514_/CLK _790_/A vdd gnd DFFPOSX1
X_1533_ _736_/Y Yout[1] vdd gnd BUFX2
X_1180_ _1192_/B _1180_/B _1180_/C _1188_/A vdd gnd NAND3X1
X_1516_ _1516_/D _1517_/CLK _773_/B vdd gnd DFFPOSX1
X_1378_ _1384_/C _1378_/B _1381_/A vdd gnd AND2X2
X_1447_ _1451_/A _924_/A _1447_/C _1519_/D vdd gnd OAI21X1
X_891_ _933_/D _895_/B _933_/C _905_/C vdd gnd OAI21X1
X_960_ _970_/A _970_/B _970_/C _971_/C vdd gnd NAND3X1
X_1232_ _1241_/A _1232_/B _1232_/C _1235_/C vdd gnd NAND3X1
X_1301_ _780_/B _917_/A _1301_/C _1306_/A vdd gnd OAI21X1
X_1094_ _1094_/A _1100_/A _1096_/B vdd gnd XOR2X1
X_1163_ _1193_/C _1169_/A _1164_/C vdd gnd NAND2X1
XBUFX2_insert4 _1526_/Q _798_/A vdd gnd BUFX2
X_874_ _874_/A _874_/B _874_/C _878_/A vdd gnd NAND3X1
X_943_ _943_/A _999_/B _988_/A _989_/B vdd gnd OAI21X1
X_1146_ _1191_/A _1187_/B _1147_/B vdd gnd XOR2X1
X_1215_ _1215_/A _1215_/B _1215_/C _1252_/A vdd gnd AOI21X1
X_1077_ _1101_/B _1101_/A _1085_/C _1091_/C vdd gnd NAND3X1
X_788_ _812_/A _788_/B _789_/C vdd gnd NAND2X1
X_857_ _893_/A _893_/B _881_/C _879_/B vdd gnd NAND3X1
X_926_ _979_/A _985_/B _929_/A _927_/C vdd gnd OAI21X1
X_1000_ _999_/Y _996_/Y _998_/Y _1078_/A vdd gnd NAND3X1
XCLKBUF1_insert11 clk _1514_/CLK vdd gnd CLKBUF1
X_1129_ _1129_/A _1129_/B _1129_/C _1130_/B vdd gnd AOI21X1
X_1480_ _1480_/D _1485_/CLK _1480_/Q vdd gnd DFFPOSX1
X_909_ _909_/A _910_/C vdd gnd INVX1
X_1532_ _730_/Y Yout[0] vdd gnd BUFX2
X_1394_ _1394_/A _1394_/B _1395_/B vdd gnd NOR2X1
X_1463_ _789_/Y _1522_/CLK _787_/A vdd gnd DFFPOSX1
X_1515_ _1515_/D _1517_/CLK _770_/B vdd gnd DFFPOSX1
X_1377_ _1392_/B _1384_/C vdd gnd INVX1
X_1446_ _1451_/A Xin[1] _1447_/C vdd gnd NAND2X1
X_890_ _933_/A _988_/A _895_/B vdd gnd NOR2X1
X_1162_ _759_/A _1225_/B _1162_/C _1169_/A vdd gnd OAI21X1
X_1231_ _1241_/B _1232_/B vdd gnd INVX1
X_1300_ _735_/D _1310_/B _1309_/C vdd gnd NAND2X1
X_1093_ _1212_/B _1212_/A _1100_/A vdd gnd NAND2X1
XBUFX2_insert5 _1526_/Q _804_/A vdd gnd BUFX2
X_1429_ _1437_/B _1435_/B _1429_/C _1510_/D vdd gnd OAI21X1
X_873_ _874_/B _874_/C _874_/A _876_/C vdd gnd AOI21X1
X_942_ _942_/A _998_/A _946_/A vdd gnd NAND2X1
X_1145_ _1214_/A _1214_/B _1187_/B vdd gnd NAND2X1
X_1214_ _1214_/A _1214_/B _1214_/C _1215_/C vdd gnd NAND3X1
X_1076_ _1130_/C _1106_/A _1106_/B _1101_/A vdd gnd NAND3X1
X_925_ Cin[3] _985_/B vdd gnd INVX2
X_787_ _787_/A _789_/B vdd gnd INVX1
X_856_ _881_/B _893_/B vdd gnd INVX1
XCLKBUF1_insert12 clk _1517_/CLK vdd gnd CLKBUF1
X_1059_ _1120_/A _1113_/A vdd gnd INVX1
X_1128_ _1178_/A _1178_/B _1138_/C _1143_/A vdd gnd NAND3X1
X_908_ _912_/A _908_/B _908_/C _969_/D vdd gnd NAND3X1
X_839_ _839_/A _874_/A vdd gnd INVX1
X_1462_ _786_/Y _1526_/CLK _784_/A vdd gnd DFFPOSX1
X_1531_ _757_/Y Xout[3] vdd gnd BUFX2
X_1393_ _1393_/A _1395_/C vdd gnd INVX1
X_1445_ _747_/A _901_/A _1445_/C _1518_/D vdd gnd OAI21X1
X_1514_ _1514_/D _1514_/CLK _767_/A vdd gnd DFFPOSX1
X_1376_ _804_/B _1376_/B _1392_/B vdd gnd NOR2X1
X_1092_ _1092_/A _1092_/B _1092_/C _1212_/B vdd gnd NAND3X1
X_1161_ _1193_/A _1227_/B _1161_/C _1162_/C vdd gnd OAI21X1
X_1230_ _1239_/B _1239_/A _1241_/B vdd gnd XOR2X1
XBUFX2_insert6 _1526_/Q _817_/A vdd gnd BUFX2
X_1428_ _744_/A _728_/B _779_/B _1429_/C vdd gnd OAI21X1
X_1359_ _1374_/B _1362_/A _1361_/B vdd gnd AND2X2
X_941_ _994_/A _992_/B _998_/A vdd gnd AND2X2
X_872_ _919_/B _909_/A _910_/B _874_/C vdd gnd NAND3X1
X_1213_ _969_/Y _1213_/B _1213_/C _1215_/A vdd gnd NAND3X1
X_1075_ _1075_/A _1133_/B _1075_/C _1106_/B vdd gnd OAI21X1
X_1144_ _1144_/A _1144_/B _1144_/C _1214_/B vdd gnd OAI21X1
X_924_ _924_/A _979_/B _929_/B _927_/B vdd gnd OAI21X1
X_786_ _816_/B _786_/B _786_/C _786_/Y vdd gnd OAI21X1
X_855_ _865_/C _883_/A _881_/C vdd gnd NAND2X1
XCLKBUF1_insert13 clk _1485_/CLK vdd gnd CLKBUF1
X_1058_ _1120_/B _1133_/A _1120_/A _1129_/A vdd gnd OAI21X1
X_1127_ _1168_/B _1168_/A _1152_/C _1178_/B vdd gnd NAND3X1
X_838_ _840_/C _840_/B _840_/A _839_/A vdd gnd NAND3X1
X_907_ _921_/B _955_/C _921_/A _912_/A vdd gnd NAND3X1
X_769_ _769_/A _771_/B vdd gnd INVX1
X_1392_ _1392_/A _1392_/B _1392_/C _1393_/A vdd gnd AOI21X1
X_1461_ _783_/Y _1514_/CLK _781_/A vdd gnd DFFPOSX1
X_1530_ _754_/Y Xout[2] vdd gnd BUFX2
X_1375_ _804_/B _1376_/B _1378_/B vdd gnd NAND2X1
X_1444_ _1451_/A Xin[0] _1445_/C vdd gnd NAND2X1
X_1513_ _1513_/D _1525_/CLK _788_/B vdd gnd DFFPOSX1
X_1091_ _1102_/A _1091_/B _1091_/C _1092_/C vdd gnd NAND3X1
X_1160_ _997_/A Cin[4] _1227_/B vdd gnd NAND2X1
X_1358_ _1373_/B _1362_/A vdd gnd INVX1
X_1427_ _765_/B _1435_/B vdd gnd INVX1
X_1289_ _780_/B _917_/A _1291_/A vdd gnd NAND2X1
X_871_ _871_/A _871_/B _871_/C _910_/B vdd gnd OAI21X1
X_940_ _947_/C _989_/A vdd gnd INVX1
X_1212_ _1212_/A _1212_/B _1213_/B vdd gnd AND2X2
X_1074_ _1129_/C _1129_/B _1129_/A _1130_/C vdd gnd NAND3X1
X_1143_ _1143_/A _1143_/B _1179_/A _1144_/B vdd gnd AOI21X1
X_854_ _978_/A _884_/B _883_/A vdd gnd AND2X2
X_923_ _980_/A Cin[3] _929_/B vdd gnd AND2X2
X_785_ _812_/A _785_/B _786_/C vdd gnd NAND2X1
XCLKBUF1_insert14 clk _1522_/CLK vdd gnd CLKBUF1
X_1126_ _1133_/C _1132_/B _1168_/B vdd gnd NAND2X1
X_1057_ _997_/A _834_/A _755_/A _993_/B _1120_/B vdd gnd AOI22X1
X_768_ _817_/A _768_/B _768_/C _768_/Y vdd gnd OAI21X1
X_837_ _847_/B _847_/A _859_/C _840_/B vdd gnd NAND3X1
X_906_ _955_/A _921_/B vdd gnd INVX1
X_1109_ _994_/A Cin[4] _1150_/B vdd gnd AND2X2
X_1391_ _733_/B _1391_/B _1391_/C _1391_/D _1499_/D vdd gnd AOI22X1
X_1460_ _780_/Y _1522_/CLK _778_/A vdd gnd DFFPOSX1
X_1512_ _1512_/D _1525_/CLK _785_/B vdd gnd DFFPOSX1
X_1374_ _1374_/A _1374_/B _1374_/C _1395_/A vdd gnd OAI21X1
X_1443_ _1443_/A _1443_/B _1443_/C _1517_/D vdd gnd AOI21X1
X_1090_ _1090_/A _1102_/C _1090_/C _1092_/B vdd gnd NAND3X1
X_1288_ _729_/D _967_/A _1299_/C vdd gnd NAND2X1
X_1357_ _1357_/A _1372_/B _1373_/B vdd gnd NOR2X1
X_1426_ _1443_/B _1426_/B _1426_/C _1509_/D vdd gnd AOI21X1
X_870_ _879_/C _879_/B _879_/A _909_/A vdd gnd NAND3X1
X_999_ _999_/A _999_/B _999_/C _999_/Y vdd gnd OAI21X1
X_1142_ _1142_/A _1179_/C _1142_/C _1144_/A vdd gnd AOI21X1
X_1211_ _1233_/A _1242_/B _1218_/B vdd gnd NAND2X1
X_1073_ _1073_/A _1103_/B _1106_/A vdd gnd AND2X2
X_1409_ Yin[1] _1439_/B vdd gnd INVX1
X_784_ _784_/A _786_/B vdd gnd INVX1
X_853_ _881_/A _893_/A vdd gnd INVX1
X_922_ _922_/A Cin[5] _928_/A vdd gnd NAND2X1
X_1125_ _1133_/A _1133_/B _1132_/A _1152_/C vdd gnd OAI21X1
X_1056_ _994_/C _1195_/A _1133_/A vdd gnd NOR2X1
X_905_ _905_/A _905_/B _905_/C _955_/C vdd gnd NAND3X1
X_767_ _767_/A _817_/A _768_/C vdd gnd NAND2X1
X_836_ _924_/A _862_/B _836_/C _847_/B vdd gnd OAI21X1
X_1039_ _1079_/C _1040_/C vdd gnd INVX1
X_1108_ _985_/A _1225_/B _1150_/D vdd gnd NOR2X1
X_1390_ _1390_/A _1394_/A _1391_/B _1391_/D vdd gnd AOI21X1
X_819_ _977_/A _835_/B _826_/A vdd gnd NAND2X1
X_1442_ _1443_/A _776_/B _1443_/C vdd gnd NOR2X1
X_1511_ _1511_/D _1526_/CLK _782_/B vdd gnd DFFPOSX1
X_1373_ _1373_/A _1373_/B _1374_/A vdd gnd NAND2X1
X_1425_ _800_/B _1426_/B _1426_/C vdd gnd NOR2X1
X_1287_ _843_/B _1287_/B _1287_/C _1489_/D vdd gnd OAI21X1
X_1356_ _798_/B _1356_/B _1372_/B vdd gnd NOR2X1
X_998_ _998_/A _998_/B _998_/Y vdd gnd NAND2X1
X_1072_ _1130_/A _1081_/B _1081_/A _1101_/B vdd gnd NAND3X1
X_1141_ _1141_/A _1144_/C vdd gnd INVX1
X_1210_ _1241_/A _1241_/C _1233_/A vdd gnd NAND2X1
X_1408_ _1437_/B _1417_/B _1408_/C _1502_/D vdd gnd OAI21X1
X_1339_ _1339_/A _1352_/B vdd gnd INVX1
X_921_ _921_/A _921_/B _921_/C _961_/C vdd gnd AOI21X1
X_783_ _817_/A _783_/B _783_/C _783_/Y vdd gnd OAI21X1
X_852_ _881_/B _893_/C _881_/A _879_/A vdd gnd OAI21X1
X_1055_ _755_/A _834_/A _1195_/A vdd gnd NAND2X1
X_1124_ _1150_/C _1150_/D _1168_/A vdd gnd XOR2X1
X_904_ _904_/A _904_/B _904_/C _921_/A vdd gnd NAND3X1
X_766_ _766_/A _768_/B vdd gnd INVX1
X_835_ _980_/A _835_/B _836_/C vdd gnd NAND2X1
X_1038_ _1090_/A _1102_/A vdd gnd INVX1
X_1107_ Cin[5] _1225_/B vdd gnd INVX2
X_818_ _922_/A _851_/B _823_/A vdd gnd NAND2X1
X_749_ _994_/A _943_/A vdd gnd INVX1
X_1441_ _1443_/A _1441_/B _1441_/C _1516_/D vdd gnd AOI21X1
X_1510_ _1510_/D _1526_/CLK _779_/B vdd gnd DFFPOSX1
X_1372_ _1373_/A _1372_/B _1372_/C _1374_/C vdd gnd AOI21X1
X_1355_ _796_/A _1482_/Q _1357_/A vdd gnd NOR2X1
X_1424_ _1441_/B _1426_/B _1424_/C _1508_/D vdd gnd AOI21X1
X_1286_ _744_/B _1404_/A _1287_/C vdd gnd NAND2X1
X_997_ _997_/A _997_/B _998_/B vdd gnd AND2X2
X_1071_ _1075_/A _1133_/B _1129_/C _1081_/A vdd gnd OAI21X1
X_1140_ _1141_/A _1177_/B _1140_/C _1214_/A vdd gnd NAND3X1
X_1338_ _1354_/A _1342_/B vdd gnd INVX1
X_1407_ _803_/B _1417_/B _1408_/C vdd gnd NAND2X1
X_1269_ _1271_/B _1271_/A _1270_/B vdd gnd NOR2X1
X_851_ _980_/A _851_/B _978_/A _884_/B _881_/B vdd gnd AOI22X1
X_920_ _971_/A _959_/A vdd gnd INVX1
X_782_ _817_/A _782_/B _783_/C vdd gnd NAND2X1
X_1054_ _994_/A Cin[2] _1120_/A vdd gnd NAND2X1
X_1123_ _1152_/A _1168_/C _1152_/B _1178_/A vdd gnd OAI21X1
X_834_ _834_/A _862_/B vdd gnd INVX1
X_903_ _955_/B _921_/C _955_/A _908_/C vdd gnd OAI21X1
X_765_ _765_/A _765_/B _765_/C _765_/Y vdd gnd OAI21X1
X_1106_ _1106_/A _1106_/B _1106_/C _1138_/C vdd gnd AOI21X1
X_1037_ _986_/C _987_/A _1090_/A vdd gnd NAND2X1
X_817_ _817_/A _817_/Y vdd gnd INVX8
X_748_ _757_/A _759_/A _748_/C _748_/Y vdd gnd OAI21X1
X_1371_ _723_/B _1391_/B _1383_/C vdd gnd NAND2X1
X_1440_ _1443_/A _773_/B _1441_/C vdd gnd NOR2X1
X_1285_ _1294_/B _1285_/B _1287_/B vdd gnd XOR2X1
X_1354_ _1354_/A _1354_/B _1354_/C _1374_/B vdd gnd AOI21X1
X_1423_ _797_/B _1426_/B _1424_/C vdd gnd NOR2X1
X_996_ _996_/A _996_/Y vdd gnd INVX1
X_1070_ _1070_/A _1070_/B _1120_/A _1133_/B vdd gnd AOI21X1
X_1268_ _769_/A _821_/A _1271_/B vdd gnd NOR2X1
X_1337_ _1339_/A _1354_/A _1341_/A vdd gnd NOR2X1
X_1406_ _1526_/D _743_/A _743_/C _1417_/B vdd gnd NAND3X1
X_1199_ _1223_/A _1224_/C _1199_/C _1223_/D vdd gnd OAI21X1
X_781_ _781_/A _783_/B vdd gnd INVX1
X_850_ _850_/A _933_/A _893_/C vdd gnd NOR2X1
X_979_ _979_/A _979_/B _984_/B _982_/B vdd gnd OAI21X1
X_1122_ _1122_/A _1132_/A _1152_/A vdd gnd NOR2X1
X_1053_ _998_/A _998_/B _999_/Y _996_/Y _1075_/C vdd gnd AOI22X1
X_764_ Xin[3] _765_/B _765_/C vdd gnd NAND2X1
X_833_ _977_/A _924_/A vdd gnd INVX1
X_902_ _902_/A _930_/C _902_/C _955_/A vdd gnd OAI21X1
X_1105_ _1130_/C _1106_/C vdd gnd INVX1
X_1036_ _974_/A _1036_/B _1036_/C _1087_/C vdd gnd AOI21X1
X_747_ _747_/A _922_/A _748_/C vdd gnd NAND2X1
X_816_ _816_/A _816_/B _816_/C _816_/Y vdd gnd OAI21X1
X_1019_ _1088_/B _1088_/C _1088_/A _1089_/C vdd gnd NAND3X1
X_1370_ _967_/A _1370_/B _1370_/C _1497_/D vdd gnd OAI21X1
X_1499_ _1499_/D _1503_/CLK _732_/A vdd gnd DFFPOSX1
X_1422_ _1439_/B _1426_/B _1422_/C _1507_/D vdd gnd AOI21X1
X_1284_ _1294_/A _1293_/A _1285_/B vdd gnd NOR2X1
X_1353_ _1353_/A _1353_/B _1353_/C _1354_/C vdd gnd OAI21X1
XBUFX2_insert30 Cin[1] _851_/B vdd gnd BUFX2
X_995_ _996_/A _995_/B _995_/C _995_/Y vdd gnd NAND3X1
X_1405_ Yin[0] _1437_/B vdd gnd INVX1
X_1198_ _755_/A Cin[4] _1224_/C vdd gnd NAND2X1
X_1267_ _771_/B _1275_/B _1271_/A vdd gnd NOR2X1
X_1336_ _1336_/A _1353_/A _1339_/A vdd gnd AND2X2
X_780_ _917_/B _780_/B _780_/C _780_/Y vdd gnd OAI21X1
X_978_ _978_/A Cin[3] _984_/B vdd gnd AND2X2
X_1052_ _1103_/B _1073_/A _1130_/A vdd gnd NAND2X1
X_1121_ _1195_/A _1195_/B _1132_/A vdd gnd XOR2X1
X_1319_ _787_/A _1479_/Q _1328_/C vdd gnd NAND2X1
X_901_ _901_/A _979_/B _973_/A _902_/C vdd gnd OAI21X1
X_763_ _999_/A _765_/B _763_/C _763_/Y vdd gnd OAI21X1
X_832_ _832_/A _865_/C _859_/C vdd gnd NAND2X1
X_1035_ _1089_/C _1036_/C vdd gnd INVX1
X_1104_ _1142_/C _1179_/A vdd gnd INVX1
X_746_ _990_/A _759_/A vdd gnd INVX2
X_815_ _922_/A _835_/B _816_/B _816_/C vdd gnd NAND3X1
X_1018_ _974_/Y _1029_/B _1029_/A _1025_/B vdd gnd NAND3X1