* NGSPICE file created from fir_pe.ext - technology: scmos

.subckt NAND3X1 A B C Y vdd gnd
M1000 Y C a_34_14# gnd nfet w=9u l=0.6u
+  ad=18.9p pd=22.2u as=2.7p ps=9.6u
M1001 a_26_14# A gnd gnd nfet w=9u l=0.6u
+  ad=2.7p pd=9.6u as=18.9p ps=22.2u
M1002 vdd B Y vdd pfet w=6u l=0.6u
+  ad=7.2p pd=8.4u as=7.2p ps=8.4u
M1003 a_34_14# B a_26_14# gnd nfet w=9u l=0.6u
+  ad=2.7p pd=9.6u as=2.7p ps=9.6u
M1004 Y C vdd vdd pfet w=6u l=0.6u
+  ad=12.6p pd=16.2u as=7.2p ps=8.4u
M1005 Y A vdd vdd pfet w=6u l=0.6u
+  ad=7.2p pd=8.4u as=12.6p ps=16.2u
.ends

.subckt BUFX2 A Y vdd gnd
M1000 Y a_7_14# vdd vdd pfet w=12u l=0.6u
+  ad=25.2p pd=28.2u as=14.4p ps=14.7u
M1001 gnd A a_7_14# gnd nfet w=3u l=0.6u
+  ad=7.2p pd=8.7u as=6.3p ps=10.2u
M1002 Y a_7_14# gnd gnd nfet w=6u l=0.6u
+  ad=12.6p pd=16.2u as=7.2p ps=8.7u
M1003 vdd A a_7_14# vdd pfet w=6u l=0.6u
+  ad=14.4p pd=14.7u as=12.6p ps=16.2u
.ends

.subckt DFFPOSX1 D CLK Q vdd gnd
M1000 vdd Q a_189_206# vdd pfet w=3u l=0.6u
+  ad=10.125p pd=14.7u as=0.9p ps=3.6u
M1001 a_83_186# a_11_14# a_59_14# vdd pfet w=6u l=0.6u
+  ad=3.6p pd=7.2u as=7.2p ps=8.4u
M1002 a_87_10# a_59_14# gnd gnd nfet w=3u l=0.6u
+  ad=6.3p pd=10.2u as=4.05p ps=5.7u
M1003 gnd CLK a_11_14# gnd nfet w=6u l=0.6u
+  ad=5.85p pd=8.4u as=12.6p ps=16.2u
M1004 gnd a_87_10# a_81_14# gnd nfet w=3u l=0.6u
+  ad=4.05p pd=5.7u as=1.35p ps=3.9u
M1005 a_159_14# a_87_10# gnd gnd nfet w=3u l=0.6u
+  ad=0.9p pd=3.6u as=6.3p ps=10.2u
M1006 a_49_186# D vdd vdd pfet w=6u l=0.6u
+  ad=4.5p pd=7.5u as=11.25p ps=14.4u
M1007 vdd a_87_10# a_83_186# vdd pfet w=6u l=0.6u
+  ad=7.2p pd=8.4u as=3.6p ps=7.2u
M1008 Q a_167_14# gnd gnd nfet w=6u l=0.6u
+  ad=12.6p pd=16.2u as=6.975p ps=8.7u
M1009 Q a_167_14# vdd vdd pfet w=12u l=0.6u
+  ad=25.2p pd=28.2u as=10.125p ps=14.7u
M1010 a_167_14# CLK a_159_14# gnd nfet w=3u l=0.6u
+  ad=3.6p pd=5.4u as=0.9p ps=3.6u
M1011 a_49_14# D gnd gnd nfet w=3u l=0.6u
+  ad=1.35p pd=3.9u as=5.85p ps=8.4u
M1012 a_87_10# a_59_14# vdd vdd pfet w=6u l=0.6u
+  ad=12.6p pd=16.2u as=7.2p ps=8.4u
M1013 a_59_14# CLK a_49_186# vdd pfet w=6u l=0.6u
+  ad=7.2p pd=8.4u as=4.5p ps=7.5u
M1014 a_161_186# a_87_10# vdd vdd pfet w=6u l=0.6u
+  ad=1.8p pd=6.6u as=12.6p ps=16.2u
M1015 a_189_206# CLK a_167_14# vdd pfet w=3u l=0.6u
+  ad=0.9p pd=3.6u as=6.075p ps=8.4u
M1016 a_59_14# a_11_14# a_49_14# gnd nfet w=3u l=0.6u
+  ad=4.05p pd=5.7u as=1.35p ps=3.9u
M1017 a_187_14# a_11_14# a_167_14# gnd nfet w=3u l=0.6u
+  ad=1.35p pd=3.9u as=3.6p ps=5.4u
M1018 vdd CLK a_11_14# vdd pfet w=12u l=0.6u
+  ad=11.25p pd=14.4u as=25.2p ps=28.2u
M1019 gnd Q a_187_14# gnd nfet w=3u l=0.6u
+  ad=6.975p pd=8.7u as=1.35p ps=3.9u
M1020 a_167_14# a_11_14# a_161_186# vdd pfet w=6u l=0.6u
+  ad=6.075p pd=8.4u as=1.8p ps=6.6u
M1021 a_81_14# CLK a_59_14# gnd nfet w=3u l=0.6u
+  ad=1.35p pd=3.9u as=4.05p ps=5.7u
.ends

.subckt OAI21X1 A B C Y vdd gnd
M1000 Y C a_7_14# gnd nfet w=6u l=0.6u
+  ad=12.6p pd=16.2u as=7.2p ps=8.4u
M1001 a_30_146# A vdd vdd pfet w=12u l=0.6u
+  ad=3.6p pd=12.6u as=25.2p ps=28.2u
M1002 vdd C Y vdd pfet w=6u l=0.6u
+  ad=12.6p pd=16.2u as=14.4p ps=14.7u
M1003 gnd A a_7_14# gnd nfet w=6u l=0.6u
+  ad=7.2p pd=8.4u as=12.6p ps=16.2u
M1004 Y B a_30_146# vdd pfet w=12u l=0.6u
+  ad=14.4p pd=14.7u as=3.6p ps=12.6u
M1005 a_7_14# B gnd gnd nfet w=6u l=0.6u
+  ad=7.2p pd=8.4u as=7.2p ps=8.4u
.ends

.subckt AND2X2 A B Y vdd gnd
M1000 a_25_14# A a_7_14# gnd nfet w=6u l=0.6u
+  ad=2.7p pd=6.9u as=12.6p ps=16.2u
M1001 gnd B a_25_14# gnd nfet w=6u l=0.6u
+  ad=7.2p pd=8.4u as=2.7p ps=6.9u
M1002 vdd B a_7_14# vdd pfet w=6u l=0.6u
+  ad=14.4p pd=14.7u as=8.1p ps=8.7u
M1003 Y a_7_14# gnd gnd nfet w=6u l=0.6u
+  ad=12.6p pd=16.2u as=7.2p ps=8.4u
M1004 Y a_7_14# vdd vdd pfet w=12u l=0.6u
+  ad=25.2p pd=28.2u as=14.4p ps=14.7u
M1005 a_7_14# A vdd vdd pfet w=6u l=0.6u
+  ad=8.1p pd=8.7u as=12.6p ps=16.2u
.ends

.subckt NAND2X1 A B Y vdd gnd
M1000 a_27_14# A gnd gnd nfet w=6u l=0.6u
+  ad=2.7p pd=6.9u as=12.6p ps=16.2u
M1001 Y B a_27_14# gnd nfet w=6u l=0.6u
+  ad=12.6p pd=16.2u as=2.7p ps=6.9u
M1002 vdd B Y vdd pfet w=6u l=0.6u
+  ad=12.6p pd=16.2u as=7.2p ps=8.4u
M1003 Y A vdd vdd pfet w=6u l=0.6u
+  ad=7.2p pd=8.4u as=12.6p ps=16.2u
.ends

.subckt AOI21X1 A B C Y vdd gnd
M1000 vdd A a_7_146# vdd pfet w=12u l=0.6u
+  ad=14.4p pd=14.4u as=25.2p ps=28.2u
M1001 Y C a_7_146# vdd pfet w=12u l=0.6u
+  ad=25.2p pd=28.2u as=14.4p ps=14.4u
M1002 a_28_14# A gnd gnd nfet w=6u l=0.6u
+  ad=1.8p pd=6.6u as=12.6p ps=16.2u
M1003 Y B a_28_14# gnd nfet w=6u l=0.6u
+  ad=7.2p pd=8.7u as=1.8p ps=6.6u
M1004 a_7_146# B vdd vdd pfet w=12u l=0.6u
+  ad=14.4p pd=14.4u as=14.4p ps=14.4u
M1005 gnd C Y gnd nfet w=3u l=0.6u
+  ad=6.3p pd=10.2u as=7.2p ps=8.7u
.ends

.subckt INVX1 A Y vdd gnd
M1000 Y A gnd gnd nfet w=3u l=0.6u
+  ad=6.3p pd=10.2u as=6.3p ps=10.2u
M1001 Y A vdd vdd pfet w=6u l=0.6u
+  ad=12.6p pd=16.2u as=12.6p ps=16.2u
.ends

.subckt NOR2X1 A B Y vdd gnd
M1000 a_25_146# A vdd vdd pfet w=12u l=0.6u
+  ad=3.6p pd=12.6u as=25.2p ps=28.2u
M1001 Y A gnd gnd nfet w=3u l=0.6u
+  ad=3.6p pd=5.4u as=6.3p ps=10.2u
M1002 Y B a_25_146# vdd pfet w=12u l=0.6u
+  ad=25.2p pd=28.2u as=3.6p ps=12.6u
M1003 gnd B Y gnd nfet w=3u l=0.6u
+  ad=6.3p pd=10.2u as=3.6p ps=5.4u
.ends

.subckt AOI22X1 A B C D Y vdd gnd
M1000 gnd C a_56_14# gnd nfet w=6u l=0.6u
+  ad=12.6p pd=16.2u as=1.8p ps=6.6u
M1001 vdd A a_7_146# vdd pfet w=12u l=0.6u
+  ad=14.4p pd=14.4u as=25.2p ps=28.2u
M1002 Y D a_7_146# vdd pfet w=12u l=0.6u
+  ad=14.4p pd=14.4u as=14.4p ps=14.4u
M1003 a_28_14# A gnd gnd nfet w=6u l=0.6u
+  ad=1.8p pd=6.6u as=12.6p ps=16.2u
M1004 Y B a_28_14# gnd nfet w=6u l=0.6u
+  ad=7.2p pd=8.4u as=1.8p ps=6.6u
M1005 a_7_146# C Y vdd pfet w=12u l=0.6u
+  ad=25.2p pd=28.2u as=14.4p ps=14.4u
M1006 a_7_146# B vdd vdd pfet w=12u l=0.6u
+  ad=14.4p pd=14.4u as=14.4p ps=14.4u
M1007 a_56_14# D Y gnd nfet w=6u l=0.6u
+  ad=1.8p pd=6.6u as=7.2p ps=8.4u
.ends

.subckt OR2X2 A B Y vdd gnd
M1000 Y a_7_146# gnd gnd nfet w=6u l=0.6u
+  ad=12.6p pd=16.2u as=6.3p ps=8.4u
M1001 a_25_146# A a_7_146# vdd pfet w=12u l=0.6u
+  ad=5.4p pd=12.9u as=25.2p ps=28.2u
M1002 a_7_146# A gnd gnd nfet w=3u l=0.6u
+  ad=3.6p pd=5.4u as=6.3p ps=10.2u
M1003 Y a_7_146# vdd vdd pfet w=12u l=0.6u
+  ad=25.2p pd=28.2u as=14.4p ps=14.4u
M1004 gnd B a_7_146# gnd nfet w=3u l=0.6u
+  ad=6.3p pd=8.4u as=3.6p ps=5.4u
M1005 vdd B a_25_146# vdd pfet w=12u l=0.6u
+  ad=14.4p pd=14.4u as=5.4p ps=12.9u
.ends

.subckt INVX2 A Y vdd gnd
M1000 Y A vdd vdd pfet w=12u l=0.6u
+  ad=25.2p pd=28.2u as=25.2p ps=28.2u
M1001 Y A gnd gnd nfet w=6u l=0.6u
+  ad=12.6p pd=16.2u as=12.6p ps=16.2u
.ends

.subckt CLKBUF1 A Y vdd gnd
M1000 Y a_105_14# vdd vdd pfet w=12u l=0.6u
+  ad=14.4p pd=14.4u as=14.4p ps=14.4u
M1001 a_65_14# a_25_14# gnd gnd nfet w=6u l=0.6u
+  ad=7.2p pd=8.4u as=7.2p ps=8.4u
M1002 a_105_14# a_65_14# vdd vdd pfet w=12u l=0.6u
+  ad=14.4p pd=14.4u as=14.4p ps=14.4u
M1003 Y a_105_14# gnd gnd nfet w=6u l=0.6u
+  ad=7.2p pd=8.4u as=7.2p ps=8.4u
M1004 a_25_14# A vdd vdd pfet w=12u l=0.6u
+  ad=14.4p pd=14.4u as=25.2p ps=28.2u
M1005 a_65_14# a_25_14# vdd vdd pfet w=12u l=0.6u
+  ad=14.4p pd=14.4u as=14.4p ps=14.4u
M1006 a_25_14# A gnd gnd nfet w=6u l=0.6u
+  ad=7.2p pd=8.4u as=12.6p ps=16.2u
M1007 gnd a_25_14# a_65_14# gnd nfet w=6u l=0.6u
+  ad=7.2p pd=8.4u as=7.2p ps=8.4u
M1008 a_105_14# a_65_14# gnd gnd nfet w=6u l=0.6u
+  ad=7.2p pd=8.4u as=7.2p ps=8.4u
M1009 gnd a_105_14# Y gnd nfet w=6u l=0.6u
+  ad=12.6p pd=16.2u as=7.2p ps=8.4u
M1010 vdd a_65_14# a_105_14# vdd pfet w=12u l=0.6u
+  ad=14.4p pd=14.4u as=14.4p ps=14.4u
M1011 vdd a_105_14# Y vdd pfet w=12u l=0.6u
+  ad=25.2p pd=28.2u as=14.4p ps=14.4u
M1012 vdd a_25_14# a_65_14# vdd pfet w=12u l=0.6u
+  ad=14.4p pd=14.4u as=14.4p ps=14.4u
M1013 gnd A a_25_14# gnd nfet w=6u l=0.6u
+  ad=7.2p pd=8.4u as=7.2p ps=8.4u
M1014 vdd A a_25_14# vdd pfet w=12u l=0.6u
+  ad=14.4p pd=14.4u as=14.4p ps=14.4u
M1015 gnd a_65_14# a_105_14# gnd nfet w=6u l=0.6u
+  ad=7.2p pd=8.4u as=7.2p ps=8.4u
.ends

.subckt INVX8 A Y vdd gnd
M1000 Y A gnd gnd nfet w=6u l=0.6u
+  ad=7.2p pd=8.4u as=7.2p ps=8.4u
M1001 Y A vdd vdd pfet w=12u l=0.6u
+  ad=14.4p pd=14.4u as=25.2p ps=28.2u
M1002 Y A vdd vdd pfet w=12u l=0.6u
+  ad=14.4p pd=14.4u as=14.4p ps=14.4u
M1003 Y A gnd gnd nfet w=6u l=0.6u
+  ad=7.2p pd=8.4u as=12.6p ps=16.2u
M1004 gnd A Y gnd nfet w=6u l=0.6u
+  ad=12.6p pd=16.2u as=7.2p ps=8.4u
M1005 vdd A Y vdd pfet w=12u l=0.6u
+  ad=25.2p pd=28.2u as=14.4p ps=14.4u
M1006 gnd A Y gnd nfet w=6u l=0.6u
+  ad=7.2p pd=8.4u as=7.2p ps=8.4u
M1007 vdd A Y vdd pfet w=12u l=0.6u
+  ad=14.4p pd=14.4u as=14.4p ps=14.4u
.ends

.subckt OAI22X1 A B C D Y vdd gnd
M1000 Y D a_7_14# gnd nfet w=6u l=0.6u
+  ad=7.2p pd=8.4u as=7.2p ps=8.4u
M1001 a_25_146# A vdd vdd pfet w=12u l=0.6u
+  ad=5.4p pd=12.9u as=25.2p ps=28.2u
M1002 a_65_146# D Y vdd pfet w=12u l=0.6u
+  ad=5.4p pd=12.9u as=23.4p ps=15.9u
M1003 gnd A a_7_14# gnd nfet w=6u l=0.6u
+  ad=7.2p pd=8.4u as=12.6p ps=16.2u
M1004 a_7_14# C Y gnd nfet w=6u l=0.6u
+  ad=12.6p pd=16.2u as=7.2p ps=8.4u
M1005 a_7_14# B gnd gnd nfet w=6u l=0.6u
+  ad=7.2p pd=8.4u as=7.2p ps=8.4u
M1006 Y B a_25_146# vdd pfet w=12u l=0.6u
+  ad=23.4p pd=15.9u as=5.4p ps=12.9u
M1007 vdd C a_65_146# vdd pfet w=12u l=0.6u
+  ad=25.2p pd=28.2u as=5.4p ps=12.9u
.ends

.subckt fir_pe gnd vdd Cin[5] Cin[4] Cin[3] Cin[2] Cin[1] Cin[0] Rdy Vld Xin[3] Xin[2]
+ Xin[1] Xin[0] Xout[3] Xout[2] Xout[1] Xout[0] Yin[3] Yin[2] Yin[1] Yin[0] Yout[3]
+ Yout[2] Yout[1] Yout[0] clk
X_1270_ _1270_/A _1270_/B _1270_/C _1297_/B vdd gnd NAND3X1
X_1606_ _767_/Y Yout[0] vdd gnd BUFX2
X_1537_ _826_/Y _1590_/CLK _824_/A vdd gnd DFFPOSX1
X_1468_ _1468_/A _1468_/B _1470_/A _1475_/C vdd gnd OAI21X1
X_1399_ _1399_/A _1399_/B _1444_/B vdd gnd AND2X2
X_981_ _988_/C _988_/B _989_/C _986_/B vdd gnd NAND3X1
X_1322_ _766_/B _1340_/A _1323_/C vdd gnd NAND2X1
X_1253_ _792_/A Cin[4] _1279_/C vdd gnd NAND2X1
X_1184_ _1187_/C _1240_/A _1187_/A _1240_/B vdd gnd NAND3X1
X_895_ _895_/A _895_/B _895_/C _915_/C vdd gnd OAI21X1
X_964_ _965_/A _964_/B _964_/C _987_/A vdd gnd NAND3X1
XBUFX2_insert0 _1600_/Q _952_/B vdd gnd BUFX2
X_1236_ _1236_/A _1270_/C _1392_/A _1237_/D vdd gnd AOI21X1
X_1167_ _1249_/B _1249_/A _1167_/C _1204_/A vdd gnd AOI21X1
X_1098_ _1165_/B _1158_/C vdd gnd INVX1
X_1305_ _1305_/A _1315_/B vdd gnd INVX1
X_947_ _947_/A _948_/B vdd gnd INVX1
X_878_ _878_/A _910_/A _879_/B vdd gnd NOR2X1
X_1021_ _1021_/A _1021_/B _1074_/A vdd gnd NAND2X1
X_1219_ _1247_/C _1223_/C _1223_/A _1259_/B vdd gnd NAND3X1
X_801_ Xin[3] _802_/B _802_/C vdd gnd NAND2X1
X_1570_ _1570_/D _1600_/CLK _775_/B vdd gnd DFFPOSX1
X_1004_ _820_/A _1128_/A _1004_/C _1005_/C vdd gnd NAND3X1
X_1553_ _1553_/D _1589_/CLK _1553_/Q vdd gnd DFFPOSX1
X_1484_ _843_/B _1491_/B _1485_/C vdd gnd NAND2X1
X_1605_ _794_/Y Xout[3] vdd gnd BUFX2
X_1536_ _823_/Y _1590_/CLK _821_/A vdd gnd DFFPOSX1
X_1398_ _1398_/A _1398_/B _1398_/C _1399_/A vdd gnd NAND3X1
X_1467_ _1471_/B _1468_/A vdd gnd INVX1
X_980_ _983_/B _983_/C _983_/A _988_/B vdd gnd NAND3X1
X_1252_ _802_/A _967_/B _1315_/A _1254_/C vdd gnd OAI21X1
X_1183_ _1183_/A _1183_/B _1183_/C _1187_/A vdd gnd OAI21X1
X_1321_ _1321_/A _1328_/C _1323_/B vdd gnd NAND2X1
X_1519_ _788_/A _936_/A _1519_/C _1592_/D vdd gnd OAI21X1
X_963_ _967_/A _967_/B _966_/A _964_/C vdd gnd OAI21X1
X_894_ _915_/B _915_/A _907_/C _904_/B vdd gnd NAND3X1
XBUFX2_insert1 _1600_/Q _823_/A vdd gnd BUFX2
X_1097_ _789_/A _1161_/D _792_/A _1101_/D _1165_/B vdd gnd AOI22X1
X_1235_ _1236_/A _1270_/C _1237_/C vdd gnd OR2X2
X_1304_ _1305_/A _1304_/B _1304_/C _1314_/A vdd gnd NAND3X1
X_1166_ _1216_/B _1249_/B vdd gnd INVX1
X_1020_ _1020_/A _1023_/B vdd gnd INVX1
X_877_ _877_/A _877_/B _877_/C _878_/A vdd gnd AOI21X1
X_946_ _957_/A _992_/C _957_/B _948_/A vdd gnd AOI21X1
X_800_ _800_/A _802_/B _800_/C _800_/Y vdd gnd OAI21X1
X_1149_ _925_/A Cin[4] _1209_/A _1152_/C vdd gnd NAND3X1
X_1218_ _1218_/A _1223_/C vdd gnd INVX1
X_1003_ _1269_/A _1128_/A vdd gnd INVX1
X_929_ _929_/A _929_/B _929_/C _939_/C vdd gnd AOI21X1
X_1552_ _1552_/D _1596_/CLK _1552_/Q vdd gnd DFFPOSX1
X_1483_ Yin[1] _1513_/B vdd gnd INVX1
X_1604_ _791_/Y Xout[2] vdd gnd BUFX2
X_1535_ _820_/Y _1589_/CLK _818_/A vdd gnd DFFPOSX1
X_1397_ _1397_/A _1398_/B _1397_/C _1399_/B vdd gnd AOI21X1
X_1466_ _1466_/A _1466_/B _1471_/B vdd gnd NOR2X1
X_1320_ _805_/B _853_/A _1321_/A vdd gnd NAND2X1
X_1251_ _789_/A Cin[3] _1278_/A vdd gnd NAND2X1
X_1182_ _1200_/C _1200_/B _1200_/A _1240_/A vdd gnd NAND3X1
X_1518_ _788_/A Xin[0] _1519_/C vdd gnd NAND2X1
X_1449_ _1451_/A _1471_/A _1453_/B vdd gnd NOR2X1
X_893_ _929_/A _929_/B _917_/C _915_/B vdd gnd NAND3X1
X_962_ Cin[3] _967_/B vdd gnd INVX2
XBUFX2_insert2 _1600_/Q _817_/A vdd gnd BUFX2
X_1165_ _1165_/A _1165_/B _1165_/C _1204_/B vdd gnd OAI21X1
X_1096_ _1249_/A _1096_/B _1165_/C vdd gnd NAND2X1
X_1303_ _1306_/C _1304_/C vdd gnd INVX1
X_1234_ _1244_/B _1234_/B _1270_/C vdd gnd NOR2X1
X_876_ _876_/A _910_/A vdd gnd INVX1
X_945_ _955_/B _945_/B _945_/C _948_/C vdd gnd AOI21X1
X_1217_ _800_/A _898_/B _1249_/B _1218_/A vdd gnd OAI21X1
X_1079_ _901_/A _961_/B _1084_/B _1082_/B vdd gnd OAI21X1
X_1148_ _974_/A Cin[3] _1209_/A vdd gnd AND2X2
X_928_ _940_/C _940_/B _940_/A _992_/B vdd gnd AOI21X1
X_1002_ _999_/A _999_/B _950_/A _951_/B _1269_/A vdd gnd AOI22X1
X_859_ _958_/A _936_/A vdd gnd INVX1
X_1551_ _1551_/D _1589_/CLK _953_/A vdd gnd DFFPOSX1
X_1482_ _1511_/B _1491_/B _1482_/C _1576_/D vdd gnd OAI21X1
X_1603_ _788_/Y Xout[1] vdd gnd BUFX2
X_1534_ _817_/Y _1589_/CLK _815_/A vdd gnd DFFPOSX1
X_1465_ _1465_/A _1465_/B _1465_/C _1470_/A vdd gnd AOI21X1
X_1396_ _1396_/A _1396_/B _1398_/B vdd gnd AND2X2
X_1250_ _974_/A Cin[5] _1255_/B vdd gnd NAND2X1
X_1517_ _781_/A _1517_/B _1517_/C _1591_/D vdd gnd AOI21X1
X_1181_ _1201_/A _1188_/B _1188_/A _1185_/C vdd gnd NAND3X1
X_1448_ _1456_/A _1465_/B _1451_/A vdd gnd NOR2X1
X_961_ _961_/A _961_/B _966_/B _964_/B vdd gnd OAI21X1
X_892_ _917_/B _929_/B vdd gnd INVX1
X_1379_ _1396_/A _1381_/A vdd gnd INVX1
XBUFX2_insert3 _1600_/Q _835_/A vdd gnd BUFX2
X_1302_ _1302_/A _1302_/B _1302_/C _1313_/A vdd gnd AOI21X1
X_1233_ _1233_/A _1233_/B _1240_/B _1240_/A _1234_/B vdd gnd AOI22X1
X_1095_ _1165_/A _1158_/D vdd gnd INVX1
X_1164_ _1221_/A _1221_/B _1222_/C vdd gnd NOR2X1
X_875_ _877_/C _877_/B _877_/A _876_/A vdd gnd NAND3X1
X_944_ _944_/A _945_/C vdd gnd INVX1
X_1216_ _1249_/A _1216_/B _1216_/C _1227_/A vdd gnd OAI21X1
X_1078_ _925_/A Cin[3] _1084_/B vdd gnd AND2X2
X_1147_ _901_/A _1280_/B _1202_/A vdd gnd NOR2X1
XCLKBUF1_insert10 clk _1582_/CLK vdd gnd CLKBUF1
X_927_ _982_/A _970_/C _982_/B _940_/C vdd gnd OAI21X1
X_1001_ _1001_/A _999_/Y _1004_/C vdd gnd OR2X2
X_789_ _789_/A _800_/A vdd gnd INVX2
X_858_ _877_/C _862_/C vdd gnd INVX1
X_1550_ _952_/Y _1591_/CLK _913_/A vdd gnd DFFPOSX1
X_1481_ _840_/B _1491_/B _1482_/C vdd gnd NAND2X1
X_1602_ _785_/Y Xout[0] vdd gnd BUFX2
X_1533_ _814_/Y _1591_/CLK _812_/A vdd gnd DFFPOSX1
X_1395_ _1395_/A _1395_/B _1395_/C _1397_/C vdd gnd OAI21X1
X_1464_ _774_/B _1478_/A _1473_/C vdd gnd NAND2X1
X_1180_ _1183_/A _1183_/B _1200_/C _1188_/A vdd gnd OAI21X1
X_1516_ _781_/A _813_/B _1517_/C vdd gnd NOR2X1
X_891_ _901_/C _919_/A _917_/C vdd gnd NAND2X1
X_960_ _960_/A Cin[3] _966_/B vdd gnd AND2X2
X_1378_ _1384_/A _1383_/A _1396_/A vdd gnd NOR2X1
X_1447_ _841_/B _1447_/B _1465_/B vdd gnd NOR2X1
X_1301_ _1301_/A _1301_/B _1301_/C _1302_/C vdd gnd OAI21X1
X_1232_ _1232_/A _1266_/A _1232_/C _1233_/B vdd gnd NAND3X1
XBUFX2_insert4 _1600_/Q _863_/B vdd gnd BUFX2
X_1163_ _1163_/A _1216_/B _1163_/C _1221_/A vdd gnd OAI21X1
X_1094_ _1165_/A _1104_/A _1104_/B _1176_/A vdd gnd NAND3X1
X_943_ _947_/A _943_/B _943_/C _950_/A vdd gnd NAND3X1
X_874_ _883_/A _883_/B _895_/C _877_/B vdd gnd NAND3X1
X_1215_ _1247_/C _1223_/A _1216_/C vdd gnd NAND2X1
X_1077_ _960_/A Cin[5] _1083_/A vdd gnd NAND2X1
X_1146_ Cin[5] _1280_/B vdd gnd INVX2
XCLKBUF1_insert11 clk _1589_/CLK vdd gnd CLKBUF1
X_788_ _788_/A _979_/A _788_/C _788_/Y vdd gnd OAI21X1
X_1000_ _950_/A _951_/B _1001_/A vdd gnd NAND2X1
X_857_ _857_/A _867_/A _877_/C vdd gnd NOR2X1
X_926_ _926_/A _979_/C _970_/C vdd gnd NOR2X1
X_1129_ _1131_/A _1130_/C vdd gnd INVX1
X_1480_ _1600_/D _775_/A _775_/C _1491_/B vdd gnd NAND3X1
X_909_ _910_/B _910_/C _910_/A _912_/C vdd gnd AOI21X1
X_1601_ _838_/A Vld vdd gnd BUFX2
X_1532_ _811_/Y _1591_/CLK _809_/A vdd gnd DFFPOSX1
X_1463_ _1463_/A _1463_/B _1463_/C _1463_/D _1573_/D vdd gnd AOI22X1
X_1394_ _1394_/A _1395_/C vdd gnd INVX1
X_1515_ _791_/A _1515_/B _1515_/C _1590_/D vdd gnd AOI21X1
X_1377_ _823_/B _1377_/B _1383_/A vdd gnd NOR2X1
X_1446_ _839_/A _1558_/Q _1456_/A vdd gnd NOR2X1
X_890_ _971_/A _920_/B _919_/A vdd gnd AND2X2
XBUFX2_insert5 _1600_/Q _838_/A vdd gnd BUFX2
X_1429_ _1429_/A _1429_/B _1429_/C _1436_/A vdd gnd OAI21X1
X_1093_ _802_/A _979_/B _1249_/A _1104_/B vdd gnd OAI21X1
X_1231_ _1231_/A _1231_/B _1231_/C _1233_/A vdd gnd NAND3X1
X_1162_ _1167_/C _1163_/C vdd gnd INVX1
X_1300_ _1300_/A _1300_/B _1301_/C vdd gnd NOR2X1
X_942_ _957_/B _992_/C _957_/A _947_/A vdd gnd NAND3X1
X_873_ _895_/B _883_/B vdd gnd INVX1
X_1214_ _796_/A _1280_/B _1214_/C _1223_/A vdd gnd OAI21X1
X_1145_ _1145_/A _1145_/B _1145_/C _1183_/C vdd gnd AOI21X1
X_1076_ _1076_/A _1076_/B _1112_/A _1140_/C vdd gnd OAI21X1
XCLKBUF1_insert12 clk _1590_/CLK vdd gnd CLKBUF1
X_925_ _925_/A _925_/B _979_/C vdd gnd NAND2X1
X_856_ _959_/A _872_/B _867_/A vdd gnd NAND2X1
X_787_ _788_/A _959_/A _788_/C vdd gnd NAND2X1
X_1128_ _1128_/A _1128_/B _1137_/B _1133_/B vdd gnd OAI21X1
X_1059_ _1125_/A _1059_/B _1059_/C _1137_/B vdd gnd NAND3X1
X_908_ _955_/B _944_/A _945_/B _910_/C vdd gnd NAND3X1
X_839_ _839_/A _841_/B vdd gnd INVX1
X_1600_ _1600_/D _1600_/CLK _1600_/Q vdd gnd DFFPOSX1
X_1531_ _808_/Y _1591_/CLK _806_/A vdd gnd DFFPOSX1
X_1393_ _763_/B _1437_/B _1407_/C vdd gnd NAND2X1
X_1462_ _1462_/A _1466_/B _1478_/A _1463_/D vdd gnd AOI21X1
X_1445_ _1450_/B _1450_/A _1471_/A vdd gnd OR2X2
X_1376_ _821_/A _1552_/Q _1384_/A vdd gnd NOR2X1
X_1514_ _791_/A _810_/B _1515_/C vdd gnd NOR2X1
XBUFX2_insert6 _1600_/Q _849_/A vdd gnd BUFX2
X_1092_ _800_/A _898_/B _1096_/B _1104_/A vdd gnd OAI21X1
X_1230_ _1266_/B _1241_/B _1241_/C _1244_/B vdd gnd AOI21X1
X_1161_ _789_/A Cin[2] _792_/A _1161_/D _1167_/C vdd gnd AOI22X1
X_1359_ _1374_/A _1398_/C _1360_/A vdd gnd NAND2X1
X_941_ _992_/A _957_/B vdd gnd INVX1
X_1428_ _1439_/B _1429_/C vdd gnd INVX1
X_1213_ _1247_/A _1315_/A _1213_/C _1214_/C vdd gnd OAI21X1
X_872_ _959_/A _872_/B _901_/C _895_/C vdd gnd NAND3X1
X_1075_ _1075_/A _1075_/B _1075_/C _1076_/B vdd gnd AOI21X1
X_1144_ _1177_/C _1145_/C vdd gnd INVX1
X_855_ _958_/A _887_/B _857_/A vdd gnd NAND2X1
X_924_ _970_/B _970_/A _982_/C _940_/B vdd gnd NAND3X1
X_786_ _974_/A _979_/A vdd gnd INVX2
XCLKBUF1_insert13 clk _1575_/CLK vdd gnd CLKBUF1
X_1127_ _1139_/B _1137_/B _1269_/B _1134_/A vdd gnd AOI21X1
X_1058_ _1062_/C _1125_/B _1062_/A _1125_/A vdd gnd NAND3X1
X_907_ _907_/A _907_/B _907_/C _945_/B vdd gnd OAI21X1
X_838_ _838_/A _838_/B _838_/C _838_/Y vdd gnd OAI21X1
X_769_ _769_/A _770_/B vdd gnd INVX1
X_1530_ _805_/Y _1575_/CLK _803_/A vdd gnd DFFPOSX1
X_1392_ _1392_/A _1392_/B _1392_/C _1567_/D vdd gnd OAI21X1
X_1461_ _1462_/A _1466_/B _1463_/C vdd gnd OR2X2
X_1513_ _781_/A _1513_/B _1513_/C _1589_/D vdd gnd AOI21X1
X_1375_ _1398_/C _1398_/A _1397_/A _1384_/B vdd gnd AOI21X1
X_1444_ _1444_/A _1444_/B _1450_/B vdd gnd NOR2X1
XBUFX2_insert7 _1600_/Q _820_/A vdd gnd BUFX2
X_1160_ _792_/A Cin[2] _1216_/B vdd gnd NAND2X1
X_1091_ _792_/A _1101_/D _1096_/B vdd gnd AND2X2
X_1427_ _1427_/A _1427_/B _1427_/C _1570_/D vdd gnd OAI21X1
X_1289_ _1296_/C _1290_/B vdd gnd INVX1
X_1358_ _1358_/A _1372_/A _1374_/A vdd gnd NOR2X1
X_940_ _940_/A _940_/B _940_/C _992_/C vdd gnd NAND3X1
X_871_ _960_/A _887_/B _901_/C vdd gnd AND2X2
X_1212_ _974_/A Cin[3] _1247_/A vdd gnd NAND2X1
X_1074_ _1074_/A _1074_/B _1123_/A vdd gnd NAND2X1
X_1143_ _1187_/C _1201_/A vdd gnd INVX1
X_854_ _854_/A _863_/A vdd gnd INVX1
X_923_ _982_/B _970_/B vdd gnd INVX1
XCLKBUF1_insert14 clk _1588_/CLK vdd gnd CLKBUF1
X_785_ _794_/A _796_/A _785_/C _785_/Y vdd gnd OAI21X1
X_1126_ _1126_/A _1126_/B _1269_/B vdd gnd NOR2X1
X_1057_ _1057_/A _1057_/B _1057_/C _1062_/A vdd gnd OAI21X1
X_837_ _838_/A _837_/B _838_/C vdd gnd NAND2X1
X_906_ _915_/C _915_/B _915_/A _944_/A vdd gnd NAND3X1
X_768_ _775_/C _782_/A vdd gnd INVX1
X_1109_ _1109_/A _1109_/B _1109_/C _1145_/B vdd gnd OAI21X1
X_1391_ _781_/D _1437_/B _1392_/C vdd gnd NAND2X1
X_1460_ _1465_/A _1466_/B vdd gnd INVX1
X_1589_ _1589_/D _1589_/CLK _807_/B vdd gnd DFFPOSX1
X_1443_ _1443_/A _1443_/B _1444_/A vdd gnd NAND2X1
X_1374_ _1374_/A _1374_/B _1398_/A vdd gnd AND2X2
X_1512_ _781_/A _807_/B _1513_/C vdd gnd NOR2X1
X_1090_ _974_/A Cin[2] _1165_/A vdd gnd NAND2X1
X_1426_ _1440_/B _1429_/B _838_/A _1427_/A vdd gnd OAI21X1
X_1357_ _1358_/A _1372_/A _1357_/C _1360_/B vdd gnd OAI21X1
X_1288_ _1300_/A _1299_/A _1296_/C vdd gnd NOR2X1
X_870_ _895_/A _883_/A vdd gnd INVX1
X_1073_ _1073_/A _1073_/B _1125_/B _1131_/A vdd gnd OAI21X1
X_1142_ _1142_/A _1142_/B _1187_/C vdd gnd NAND2X1
X_999_ _999_/A _999_/B _999_/Y vdd gnd NAND2X1
X_1211_ _1213_/C _1211_/B _1211_/C _1247_/C vdd gnd NAND3X1
X_1409_ _830_/A _1555_/Q _1411_/A vdd gnd NOR2X1
XCLKBUF1_insert15 clk _1591_/CLK vdd gnd CLKBUF1
X_853_ _853_/A _952_/B _853_/C _853_/Y vdd gnd OAI21X1
X_922_ _960_/A Cin[2] _982_/B vdd gnd NAND2X1
X_784_ _788_/A _958_/A _785_/C vdd gnd NAND2X1
X_1125_ _1125_/A _1125_/B _1130_/A _1130_/B _1126_/B vdd gnd AOI22X1
X_1056_ _1072_/B _1072_/A _1072_/C _1125_/B vdd gnd NAND3X1
X_767_ _767_/A _767_/B _767_/C _767_/Y vdd gnd OAI21X1
X_836_ _836_/A _838_/B vdd gnd INVX1
X_905_ _937_/A _955_/B vdd gnd INVX1
X_1039_ _925_/A _925_/B _974_/A _974_/B _1040_/B vdd gnd AOI22X1
X_1108_ _1176_/C _1176_/B _1176_/A _1177_/C vdd gnd NAND3X1
X_1390_ _1390_/A _1390_/B _1392_/B vdd gnd NAND2X1
X_819_ _820_/A _819_/B _820_/C vdd gnd NAND2X1
X_1588_ _1588_/D _1588_/CLK _804_/A vdd gnd DFFPOSX1
X_1442_ _1442_/A _1442_/B _1450_/A vdd gnd NAND2X1
X_1511_ _776_/A _1511_/B _1511_/C _1588_/D vdd gnd AOI21X1
X_1373_ _820_/B _953_/Y _1373_/C _1397_/A vdd gnd OAI21X1
X_1425_ _1429_/B _1440_/B _1427_/B vdd gnd AND2X2
X_1287_ _1287_/A _1287_/B _1299_/A vdd gnd AND2X2
X_1356_ _1398_/C _1357_/C vdd gnd INVX1
X_1210_ _800_/A _967_/B _1210_/C _1213_/C vdd gnd OAI21X1
X_1141_ _1141_/A _1141_/B _1141_/C _1186_/A vdd gnd OAI21X1
X_1072_ _1072_/A _1072_/B _1072_/C _1073_/B vdd gnd AOI21X1
X_998_ _998_/A _998_/B _998_/C _999_/B vdd gnd NAND3X1
X_1339_ _776_/B _1340_/A _1340_/C vdd gnd NAND2X1
X_1408_ _1420_/A _1417_/A _1418_/C _1413_/B vdd gnd AOI21X1
X_852_ _958_/A _872_/B _952_/B _853_/C vdd gnd NAND3X1
X_783_ _925_/A _796_/A vdd gnd INVX2
X_921_ _982_/A _970_/A vdd gnd INVX1
X_1055_ _1073_/A _1063_/B _1063_/A _1059_/C vdd gnd NAND3X1
X_1124_ _1141_/A _1141_/C _1124_/C _1130_/B vdd gnd NAND3X1
X_904_ _937_/A _904_/B _904_/C _910_/B vdd gnd NAND3X1
X_835_ _835_/A _835_/B _835_/C _835_/Y vdd gnd OAI21X1
X_766_ _776_/A _766_/B _802_/B _766_/D _767_/C vdd gnd AOI22X1
X_1107_ _1107_/A _1142_/B _1145_/A vdd gnd AND2X2
X_1038_ _1075_/A _1075_/B _1047_/C _1053_/B vdd gnd NAND3X1
X_818_ _818_/A _820_/B vdd gnd INVX1
X_1587_ _1587_/D _1590_/CLK _825_/B vdd gnd DFFPOSX1
X_1441_ _1441_/A _1443_/B _1442_/B vdd gnd NAND2X1
X_1372_ _1372_/A _1374_/B _1373_/C vdd gnd NAND2X1
X_1510_ _776_/A _804_/A _1511_/C vdd gnd NOR2X1
X_1355_ _1355_/A _1355_/B _1355_/C _1398_/C vdd gnd OAI21X1
X_1424_ _1424_/A _1440_/B vdd gnd INVX1
X_1286_ _1287_/B _1287_/A _1300_/A vdd gnd NOR2X1
X_997_ _997_/A _997_/B _998_/C vdd gnd NAND2X1
X_1140_ _1140_/A _1140_/B _1140_/C _1141_/B vdd gnd AOI21X1
X_1071_ _1137_/B _1269_/A _1071_/C _1139_/B vdd gnd NAND3X1
X_1407_ _1407_/A _1407_/B _1407_/C _1568_/D vdd gnd OAI21X1
X_1338_ _1338_/A _1338_/B _1340_/B vdd gnd NAND2X1
X_1269_ _1269_/A _1269_/B _1269_/C _1271_/A vdd gnd NAND3X1
X_782_ _782_/A _782_/B _782_/C _782_/Y vdd gnd OAI21X1
X_920_ _925_/A _920_/B _971_/A _925_/B _982_/A vdd gnd AOI22X1
X_851_ _851_/A _853_/A vdd gnd INVX1
X_1054_ _1057_/A _1057_/B _1072_/C _1063_/B vdd gnd OAI21X1
X_1123_ _1123_/A _1123_/B _1123_/C _1130_/A vdd gnd NAND3X1
X_903_ _907_/A _907_/B _915_/C _904_/C vdd gnd OAI21X1
X_834_ _835_/A _834_/B _835_/C vdd gnd NAND2X1
X_765_ _791_/A _765_/B _802_/B vdd gnd NOR2X1
X_1037_ _1089_/C _1089_/D _1102_/C _1075_/B vdd gnd NAND3X1
X_1106_ _1177_/A _1115_/B _1115_/A _1140_/A vdd gnd NAND3X1
X_817_ _817_/A _817_/B _817_/C _817_/Y vdd gnd OAI21X1
X_1586_ _1586_/D _1590_/CLK _822_/B vdd gnd DFFPOSX1
X_1371_ _776_/D _1392_/A _1382_/C vdd gnd NAND2X1
X_1440_ _1440_/A _1440_/B _1443_/B vdd gnd NOR2X1
X_1569_ _1569_/D _1582_/CLK _769_/A vdd gnd DFFPOSX1
X_1285_ _1306_/C _1285_/B _1287_/A vdd gnd NAND2X1
X_1354_ _817_/B _952_/A _1372_/A vdd gnd NOR2X1
X_1423_ _1429_/A _1439_/B _1424_/A vdd gnd NOR2X1
X_996_ _996_/A _996_/B _996_/C _998_/B vdd gnd NAND3X1
X_1406_ _1406_/A _1444_/B _835_/A _1407_/A vdd gnd OAI21X1
X_1268_ _1291_/A _1291_/B _1274_/B vdd gnd NAND2X1
X_1337_ _1341_/A _1341_/B _1338_/B vdd gnd OR2X2
X_1070_ _1553_/Q _1386_/B vdd gnd INVX1
X_850_ _863_/B _850_/B _850_/C _850_/Y vdd gnd OAI21X1
X_1199_ _1302_/B _1199_/B _1199_/C _1236_/A vdd gnd AOI21X1
X_781_ _781_/A _781_/B _802_/B _781_/D _782_/C vdd gnd AOI22X1
X_979_ _979_/A _979_/B _979_/C _983_/B vdd gnd OAI21X1
X_1122_ _1131_/C _1131_/B _1131_/A _1126_/A vdd gnd AOI21X1
X_1053_ _1053_/A _1053_/B _1076_/A _1057_/B vdd gnd AOI21X1
X_764_ _764_/A _765_/B vdd gnd INVX2
X_833_ _833_/A _835_/B vdd gnd INVX1
X_902_ _902_/A _902_/B _917_/A _907_/B vdd gnd AOI21X1
X_1105_ _1109_/A _1109_/B _1176_/C _1115_/A vdd gnd OAI21X1
X_1036_ _979_/A _898_/B _1036_/C _1089_/C vdd gnd OAI21X1
X_1585_ _1585_/D _1589_/CLK _819_/B vdd gnd DFFPOSX1
X_816_ _817_/A _816_/B _817_/C vdd gnd NAND2X1
X_1019_ _1020_/A _1019_/B _1019_/C _1045_/A vdd gnd NAND3X1
X_1370_ _1370_/A _817_/A _1370_/C _1565_/D vdd gnd OAI21X1
X_1568_ _1568_/D _1600_/CLK _763_/B vdd gnd DFFPOSX1
X_1499_ _837_/B _1500_/B _1500_/C vdd gnd NOR2X1
X_1284_ _1284_/A _1284_/B _1306_/C vdd gnd NAND2X1
X_1353_ _815_/A _913_/A _1358_/A vdd gnd NOR2X1
X_1422_ _835_/B _1422_/B _1439_/B vdd gnd NOR2X1
XBUFX2_insert30 Cin[1] _887_/B vdd gnd BUFX2
X_995_ _995_/A _995_/B _995_/C _999_/A vdd gnd NAND3X1
X_1405_ _1417_/A _1406_/A vdd gnd INVX1
X_780_ _780_/A _780_/B _780_/C _782_/B vdd gnd OAI21X1
X_1336_ _1341_/B _1341_/A _1338_/A vdd gnd NAND2X1
X_1267_ _1299_/B _1296_/B _1291_/A vdd gnd NAND2X1
X_1198_ _1270_/A _1199_/C vdd gnd INVX1
X_978_ _978_/A _978_/B _983_/A vdd gnd NAND2X1
X_1052_ _1113_/B _1112_/A _1113_/A _1057_/A vdd gnd AOI21X1
X_1121_ _1141_/A _1123_/B _1123_/C _1131_/C vdd gnd NAND3X1
X_1319_ _1327_/A _1328_/C vdd gnd INVX1
X_901_ _901_/A _979_/B _901_/C _902_/B vdd gnd OAI21X1
X_832_ _838_/A _832_/B _832_/C _832_/Y vdd gnd OAI21X1
X_763_ _775_/A _763_/B _775_/C _767_/B vdd gnd OAI21X1
X_1035_ _978_/B _1249_/A _1102_/C vdd gnd NAND2X1
X_1104_ _1104_/A _1104_/B _1165_/A _1109_/B vdd gnd AOI21X1
X_1584_ _1584_/D _1589_/CLK _816_/B vdd gnd DFFPOSX1
X_815_ _815_/A _817_/B vdd gnd INVX1
X_1018_ _901_/A _967_/B _1021_/A _1019_/C vdd gnd OAI21X1
X_1567_ _1567_/D _1590_/CLK _781_/D vdd gnd DFFPOSX1
X_1498_ _1515_/B _1500_/B _1498_/C _1582_/D vdd gnd AOI21X1
X_1352_ _766_/D _1437_/B _1361_/C vdd gnd NAND2X1
X_1283_ _1284_/B _1284_/A _1285_/B vdd gnd OR2X2
X_1421_ _833_/A _1556_/Q _1429_/A vdd gnd NOR2X1
XBUFX2_insert31 Cin[1] _860_/A vdd gnd BUFX2
XBUFX2_insert20 _1197_/Y _1478_/A vdd gnd BUFX2
X_994_ _996_/C _997_/B _995_/C vdd gnd NAND2X1
X_1197_ _817_/A _1197_/Y vdd gnd INVX8
X_1266_ _1266_/A _1266_/B _1266_/C _1296_/B vdd gnd NAND3X1
X_1335_ _1335_/A _1341_/C _1341_/B vdd gnd NOR2X1
X_1404_ _1417_/A _1420_/A _1407_/B vdd gnd NOR2X1
X_977_ _984_/C _983_/C vdd gnd INVX1
X_1120_ _1120_/A _1120_/B _1140_/C _1123_/B vdd gnd OAI21X1
X_1051_ _986_/A _1051_/B _990_/A _1072_/C vdd gnd OAI21X1
X_1318_ _805_/B _853_/A _1327_/A vdd gnd NOR2X1
X_1249_ _1249_/A _1249_/B _1259_/A vdd gnd NAND2X1
X_831_ _838_/A _831_/B _832_/C vdd gnd NAND2X1
X_900_ _974_/B _979_/B vdd gnd INVX1
X_762_ _764_/A _776_/A _775_/C vdd gnd NOR2X1
X_1103_ _1165_/C _1158_/C _1158_/D _1109_/A vdd gnd AOI21X1
X_1034_ _789_/A _860_/A _1249_/A vdd gnd AND2X2
X_814_ _817_/A _814_/B _814_/C _814_/Y vdd gnd OAI21X1
X_1583_ _1583_/D _1600_/CLK _837_/B vdd gnd DFFPOSX1
X_1017_ _960_/A Cin[4] _1021_/A vdd gnd AND2X2
X_1566_ _1566_/D _1590_/CLK _776_/D vdd gnd DFFPOSX1
X_1497_ _834_/B _1500_/B _1498_/C vdd gnd NOR2X1
X_1351_ _1463_/B _1351_/B _1351_/C _1563_/D vdd gnd OAI21X1
X_1420_ _1420_/A _1443_/A _1441_/A _1429_/B vdd gnd AOI21X1
X_1282_ _1304_/B _1282_/B _1284_/A vdd gnd AND2X2
X_1549_ _912_/Y _1591_/CLK _881_/A vdd gnd DFFPOSX1
XBUFX2_insert32 Cin[1] _925_/B vdd gnd BUFX2
XBUFX2_insert21 Cin[0] _1101_/D vdd gnd BUFX2
X_993_ _996_/A _996_/B _997_/B vdd gnd NAND2X1
X_1265_ _1265_/A _1265_/B _1266_/C vdd gnd NAND2X1
X_1196_ _1555_/Q _1419_/B vdd gnd INVX1
X_1334_ _811_/B _880_/A _1341_/C vdd gnd NOR2X1
X_1403_ _1403_/A _1418_/C _1417_/A vdd gnd NOR2X1
X_1050_ _988_/C _988_/B _988_/A _1051_/B vdd gnd AOI21X1
X_976_ _984_/C _984_/A _984_/B _988_/C vdd gnd NAND3X1
X_1179_ _1179_/A _1179_/B _1205_/A _1183_/A vdd gnd AOI21X1
X_1317_ _1458_/B _1463_/B _1317_/C _1317_/D _1559_/D vdd gnd AOI22X1
X_761_ _780_/A _775_/A vdd gnd INVX1
X_830_ _830_/A _832_/B vdd gnd INVX1
X_1248_ _1277_/A _1261_/C vdd gnd INVX1
X_1102_ _1102_/A _1102_/B _1102_/C _1176_/C vdd gnd OAI21X1
X_959_ _959_/A _961_/A vdd gnd INVX1
X_1033_ _1102_/A _1089_/D vdd gnd INVX1
X_813_ _817_/A _813_/B _814_/C vdd gnd NAND2X1
X_1582_ _1582_/D _1582_/CLK _834_/B vdd gnd DFFPOSX1
X_1016_ _967_/A _961_/B _1021_/B _1019_/B vdd gnd OAI21X1
X_1565_ _1565_/D _1589_/CLK _772_/D vdd gnd DFFPOSX1
X_1496_ _1513_/B _1500_/B _1496_/C _1581_/D vdd gnd AOI21X1
X_1350_ _781_/B _1463_/B _1351_/C vdd gnd NAND2X1
X_1281_ _1306_/A _1305_/A _1304_/B vdd gnd NAND2X1
X_1548_ _880_/Y _1591_/CLK _864_/A vdd gnd DFFPOSX1
X_1479_ Yin[0] _1511_/B vdd gnd INVX1
XBUFX2_insert33 Cin[1] _1161_/D vdd gnd BUFX2
XBUFX2_insert22 Cin[0] _974_/B vdd gnd BUFX2