* NGSPICE file created from ALU8_Mult.ext - technology: scmos

* Black-box entry subcircuit for FILL abstract view
.subckt FILL vdd gnd
.ends

* Black-box entry subcircuit for NAND2X1 abstract view
.subckt NAND2X1 A B Y vdd gnd
.ends

* Black-box entry subcircuit for INVX1 abstract view
.subckt INVX1 A Y vdd gnd
.ends

* Black-box entry subcircuit for AOI21X1 abstract view
.subckt AOI21X1 A B C Y vdd gnd
.ends

* Black-box entry subcircuit for NOR2X1 abstract view
.subckt NOR2X1 A B Y vdd gnd
.ends

* Black-box entry subcircuit for NAND3X1 abstract view
.subckt NAND3X1 A B C Y vdd gnd
.ends

* Black-box entry subcircuit for OAI21X1 abstract view
.subckt OAI21X1 A B C Y vdd gnd
.ends

* Black-box entry subcircuit for NOR3X1 abstract view
.subckt NOR3X1 A B C Y vdd gnd
.ends

* Black-box entry subcircuit for AND2X2 abstract view
.subckt AND2X2 A B Y vdd gnd
.ends

* Black-box entry subcircuit for OR2X2 abstract view
.subckt OR2X2 A B Y vdd gnd
.ends

* Black-box entry subcircuit for AOI22X1 abstract view
.subckt AOI22X1 A B C D Y vdd gnd
.ends

* Black-box entry subcircuit for INVX2 abstract view
.subckt INVX2 A Y vdd gnd
.ends

* Black-box entry subcircuit for DFFPOSX1 abstract view
.subckt DFFPOSX1 D CLK Q vdd gnd
.ends

* Black-box entry subcircuit for BUFX2 abstract view
.subckt BUFX2 A Y vdd gnd
.ends

* Black-box entry subcircuit for MUX2X1 abstract view
.subckt MUX2X1 A B S Y vdd gnd
.ends

* Black-box entry subcircuit for CLKBUF1 abstract view
.subckt CLKBUF1 A Y vdd gnd
.ends

* Black-box entry subcircuit for OAI22X1 abstract view
.subckt OAI22X1 A B C D Y vdd gnd
.ends

* Black-box entry subcircuit for INVX4 abstract view
.subckt INVX4 A Y vdd gnd
.ends

* Black-box entry subcircuit for DFFSR abstract view
.subckt DFFSR R S D CLK Q vdd gnd
.ends

.subckt ALU8_Mult gnd vdd ABCmd_i[7] ABCmd_i[6] ABCmd_i[5] ABCmd_i[4] ABCmd_i[3] ABCmd_i[2]
+ ABCmd_i[1] ABCmd_i[0] ACC_o[7] ACC_o[6] ACC_o[5] ACC_o[4] ACC_o[3] ACC_o[2] ACC_o[1]
+ ACC_o[0] Flag_i LoadA_i LoadB_i LoadCmd_i MulH_i MulL_i clk reset
XFILL_0__1828_ vdd gnd FILL
XFILL_0__1759_ vdd gnd FILL
XFILL_2__992_ vdd gnd FILL
XFILL_1__1104_ vdd gnd FILL
XFILL86250x68550 vdd gnd FILL
XFILL_1__1035_ vdd gnd FILL
XFILL_1__1868_ vdd gnd FILL
XFILL_1__1799_ vdd gnd FILL
XFILL_2__1213_ vdd gnd FILL
XFILL_0__1613_ vdd gnd FILL
XFILL_0__1544_ vdd gnd FILL
X_1270_ _1358_/A _1270_/B _1278_/B vdd gnd NAND2X1
XFILL_0__1475_ vdd gnd FILL
X_1606_ _1686_/A _1608_/B vdd gnd INVX1
X_1399_ _1439_/B _1462_/A vdd gnd INVX1
X_1468_ _1468_/A _1468_/B _1468_/C _1469_/B vdd gnd AOI21X1
X_1537_ _1567_/A _1537_/B _1539_/B vdd gnd NAND2X1
XFILL_1__1722_ vdd gnd FILL
XFILL_1__1584_ vdd gnd FILL
X_981_ _981_/A _982_/C _992_/A vdd gnd NOR2X1
XFILL_1__1018_ vdd gnd FILL
XFILL_0__1260_ vdd gnd FILL
XFILL_0__1191_ vdd gnd FILL
X_1322_ _1322_/A _1322_/B _1322_/C _1409_/A vdd gnd NAND3X1
XFILL_1__993_ vdd gnd FILL
X_1253_ _1253_/A _1253_/B _1352_/C _1257_/C vdd gnd OAI21X1
XFILL_0__1527_ vdd gnd FILL
X_1184_ _1530_/A _1530_/C _1530_/B _1529_/A vdd gnd NOR3X1
XFILL_0__1458_ vdd gnd FILL
XFILL_0__1389_ vdd gnd FILL
XFILL_1__1636_ vdd gnd FILL
XFILL_1__1705_ vdd gnd FILL
XFILL_1__1498_ vdd gnd FILL
XFILL_1__1567_ vdd gnd FILL
X_964_ _980_/A _964_/B _964_/C _973_/B vdd gnd NAND3X1
XFILL_0__1312_ vdd gnd FILL
XFILL_0__1174_ vdd gnd FILL
X_1871_ _1871_/A _1871_/B _1871_/C _1873_/B vdd gnd AOI21X1
XFILL_0__1243_ vdd gnd FILL
X_1305_ _923_/A _958_/C _977_/A _1319_/A vdd gnd NAND3X1
X_1236_ _1236_/A _1236_/B _1236_/C _1340_/C vdd gnd OAI21X1
XFILL_1__976_ vdd gnd FILL
XFILL_1__1421_ vdd gnd FILL
X_1167_ _1265_/B _1265_/A _1190_/C vdd gnd AND2X2
X_1098_ _1113_/C _1113_/A _1113_/B _1246_/C vdd gnd AOI21X1
XFILL_1__1352_ vdd gnd FILL
XFILL_1__1283_ vdd gnd FILL
XFILL_2__1461_ vdd gnd FILL
XFILL_1__1619_ vdd gnd FILL
XFILL_0__994_ vdd gnd FILL
X_947_ _971_/A _971_/B _957_/C _955_/A vdd gnd NAND3X1
XFILL_0__1861_ vdd gnd FILL
XFILL_2__1728_ vdd gnd FILL
XFILL_0__1792_ vdd gnd FILL
X_1021_ _1101_/B _1022_/B vdd gnd INVX1
XFILL_0__1157_ vdd gnd FILL
X_1854_ _1854_/A _1854_/B _1871_/B _1858_/B vdd gnd OAI21X1
X_1785_ _958_/C _1787_/B _1786_/C vdd gnd NAND2X1
XFILL_0__1226_ vdd gnd FILL
XFILL_0__1088_ vdd gnd FILL
XFILL_1__1404_ vdd gnd FILL
XFILL_1__959_ vdd gnd FILL
X_1219_ _1297_/A _1297_/B _1294_/C _1237_/B vdd gnd NAND3X1
XFILL_1__1335_ vdd gnd FILL
XFILL_1__1266_ vdd gnd FILL
XFILL_1__1197_ vdd gnd FILL
XFILL_0__977_ vdd gnd FILL
XFILL_0__1011_ vdd gnd FILL
X_1570_ _1833_/Y _1594_/A _1571_/C vdd gnd NAND2X1
XFILL_0__1844_ vdd gnd FILL
XFILL_0__1775_ vdd gnd FILL
X_1004_ _1062_/A _964_/B _958_/C _1070_/A vdd gnd NAND3X1
XFILL_1__1120_ vdd gnd FILL
XFILL_0__1209_ vdd gnd FILL
X_1768_ _1809_/A _980_/B _1842_/C _1769_/C vdd gnd OAI21X1
X_1837_ _1837_/A _1843_/B _1840_/B vdd gnd AND2X2
XFILL_1__1051_ vdd gnd FILL
XFILL_1__1884_ vdd gnd FILL
X_1699_ _1744_/A _1729_/B _1863_/A _1732_/B vdd gnd OAI21X1
XFILL_1__1318_ vdd gnd FILL
XFILL_1__1249_ vdd gnd FILL
XFILL_0__1560_ vdd gnd FILL
XFILL_0__1491_ vdd gnd FILL
X_1622_ ABCmd_i[1] LoadA_i _1623_/C vdd gnd NAND2X1
XFILL_1_CLKBUF1_insert0 vdd gnd FILL
X_1553_ _1554_/A _1553_/B _1556_/B vdd gnd NAND2X1
XFILL_2_BUFX2_insert14 vdd gnd FILL
X_1484_ Flag_i _1776_/Y _1592_/C _1485_/C vdd gnd OAI21X1
XFILL_0__1758_ vdd gnd FILL
XFILL_0__1689_ vdd gnd FILL
XFILL_0__1827_ vdd gnd FILL
XFILL_1__1034_ vdd gnd FILL
XFILL_1__1103_ vdd gnd FILL
XFILL_1__1867_ vdd gnd FILL
XFILL_1__1798_ vdd gnd FILL
XFILL_0__1543_ vdd gnd FILL
XFILL_0__1612_ vdd gnd FILL
XFILL_0__1474_ vdd gnd FILL
X_1605_ LoadCmd_i _1605_/B _1605_/C _1655_/D vdd gnd OAI21X1
X_1536_ _920_/Y _1536_/B _1536_/C _1665_/D vdd gnd OAI21X1
X_1398_ _1408_/A _1410_/C _1409_/A _1439_/B vdd gnd NAND3X1
X_1467_ _1519_/A _1519_/B _1525_/A vdd gnd NAND2X1
XFILL_1__1652_ vdd gnd FILL
XFILL_1__1583_ vdd gnd FILL
XFILL_1__1721_ vdd gnd FILL
XFILL_1__1017_ vdd gnd FILL
X_980_ _980_/A _980_/B _980_/C _982_/C vdd gnd NAND3X1
XFILL_2__1761_ vdd gnd FILL
XFILL85650x46950 vdd gnd FILL
XFILL_0__1190_ vdd gnd FILL
X_1321_ _1321_/A _1410_/A _1322_/B vdd gnd NOR2X1
XFILL_1__992_ vdd gnd FILL
X_1252_ _1352_/A _1352_/B _1285_/A _1257_/B vdd gnd NAND3X1
XFILL_0__1457_ vdd gnd FILL
X_1183_ _1183_/A _1183_/B _1183_/C _1530_/A vdd gnd AOI21X1
XFILL_0__1526_ vdd gnd FILL
XFILL_0__1388_ vdd gnd FILL
X_1519_ _1519_/A _1519_/B _1519_/C _1525_/B vdd gnd OAI21X1
XFILL_1__1635_ vdd gnd FILL
XFILL_1__1704_ vdd gnd FILL
XFILL_1__1566_ vdd gnd FILL
XFILL_1__1497_ vdd gnd FILL
X_963_ _963_/A _963_/B _967_/A _999_/A vdd gnd OAI21X1
XFILL_2__1813_ vdd gnd FILL
XFILL_0__1311_ vdd gnd FILL
X_1870_ _1870_/A _1870_/B _1870_/C _1888_/A vdd gnd OAI21X1
XFILL_2__1109_ vdd gnd FILL
XFILL_0__1242_ vdd gnd FILL
XFILL_0__1173_ vdd gnd FILL
X_1304_ _1332_/B _1332_/A _1405_/A vdd gnd NAND2X1
XFILL_1__1420_ vdd gnd FILL
X_1166_ _1166_/A _1166_/B _1166_/C _1265_/B vdd gnd NAND3X1
X_1235_ _1340_/A _1340_/B _1289_/C _1248_/A vdd gnd NAND3X1
XFILL_1__975_ vdd gnd FILL
XFILL_0__1509_ vdd gnd FILL
XFILL_1__1351_ vdd gnd FILL
X_1097_ _1209_/A _1236_/C _1236_/A _1113_/A vdd gnd NAND3X1
XFILL_1__1282_ vdd gnd FILL
XFILL_1__1618_ vdd gnd FILL
XFILL_1__1549_ vdd gnd FILL
XFILL_0__993_ vdd gnd FILL
XFILL_0__1860_ vdd gnd FILL
X_946_ _946_/A _946_/B _946_/C _971_/B vdd gnd OAI21X1
XFILL_0__1791_ vdd gnd FILL
X_1020_ _935_/A _982_/B _1080_/A _1101_/B vdd gnd OAI21X1
XFILL_0__1156_ vdd gnd FILL
X_1853_ _1874_/B _1874_/A _1854_/B vdd gnd NOR2X1
XFILL_0__1087_ vdd gnd FILL
X_1784_ _1837_/A _979_/B _1787_/B vdd gnd AND2X2
XFILL_0__1225_ vdd gnd FILL
XFILL_1__1403_ vdd gnd FILL
XFILL_1__958_ vdd gnd FILL
X_1218_ _1643_/B _963_/B _1218_/C _1297_/B vdd gnd OAI21X1
X_1149_ _964_/B _977_/B _1172_/B vdd gnd NAND2X1
XFILL_1__1196_ vdd gnd FILL
XFILL_1__1334_ vdd gnd FILL
XFILL_1__1265_ vdd gnd FILL
XFILL_0__1010_ vdd gnd FILL
XFILL_0__976_ vdd gnd FILL
XFILL_0__1843_ vdd gnd FILL
X_929_ _980_/A _958_/B _980_/C _930_/B vdd gnd NAND3X1
XFILL_0__1774_ vdd gnd FILL
X_1003_ _1007_/A _1008_/C _1070_/B vdd gnd AND2X2
XFILL_1__1050_ vdd gnd FILL
XFILL_0__1139_ vdd gnd FILL
X_1836_ _1836_/A _1836_/B _1841_/C vdd gnd NAND2X1
X_1767_ _1767_/A _1767_/B _1767_/C _1771_/A vdd gnd OAI21X1
X_1698_ _975_/B _1863_/A vdd gnd INVX1
XFILL_0__1208_ vdd gnd FILL
XFILL_1__1883_ vdd gnd FILL
XFILL86850x75750 vdd gnd FILL
XFILL_1__1317_ vdd gnd FILL
XFILL_1__1248_ vdd gnd FILL
XFILL_1__1179_ vdd gnd FILL
XFILL_0__1490_ vdd gnd FILL
XFILL_2__1357_ vdd gnd FILL
XFILL_1_CLKBUF1_insert1 vdd gnd FILL
X_1552_ _1555_/B _1555_/C _1553_/B vdd gnd NAND2X1
XFILL_0__959_ vdd gnd FILL
X_1621_ LoadA_i _953_/A _1621_/C _1669_/D vdd gnd OAI21X1
X_1483_ _1889_/Y _1485_/B vdd gnd INVX1
XFILL_0__1826_ vdd gnd FILL
XFILL_0__1757_ vdd gnd FILL
XFILL_0__1688_ vdd gnd FILL
XFILL_1__1033_ vdd gnd FILL
XFILL_1__1102_ vdd gnd FILL
XFILL86850x50550 vdd gnd FILL
X_1819_ _1881_/B _1824_/B vdd gnd INVX1
XFILL_1__1866_ vdd gnd FILL
XFILL_1__1797_ vdd gnd FILL
XFILL_2__1409_ vdd gnd FILL
XFILL_0__1473_ vdd gnd FILL
XFILL_0__1611_ vdd gnd FILL
XFILL_0__1542_ vdd gnd FILL
X_1604_ LoadCmd_i ABCmd_i[2] _1605_/C vdd gnd NAND2X1
XFILL_1__1720_ vdd gnd FILL
X_1535_ _920_/Y _1535_/B _1536_/C vdd gnd NAND2X1
X_1466_ _1488_/C _1470_/A _1519_/B vdd gnd NAND2X1
X_1397_ _1409_/A _1408_/A _1410_/C _1460_/A vdd gnd AOI21X1
XFILL_1__1651_ vdd gnd FILL
XFILL_1__1582_ vdd gnd FILL
XFILL_0__1809_ vdd gnd FILL
XFILL_1__1016_ vdd gnd FILL
XFILL_1__1849_ vdd gnd FILL
XFILL_2__1056_ vdd gnd FILL
X_1320_ _1378_/A _1378_/B _1320_/C _1322_/C vdd gnd NAND3X1
XFILL_1__991_ vdd gnd FILL
X_1182_ _1428_/B _1480_/A _1480_/B _1530_/C vdd gnd NAND3X1
X_1251_ _1286_/A _1353_/A vdd gnd INVX1
XFILL_0__1456_ vdd gnd FILL
XFILL_0__1525_ vdd gnd FILL
XFILL_0__1387_ vdd gnd FILL
X_1518_ _1519_/A _1519_/B _1518_/C _1584_/A vdd gnd OAI21X1
X_1449_ _977_/A _1577_/A _1495_/A vdd gnd NAND2X1
XFILL_1__1703_ vdd gnd FILL
XFILL_1__1634_ vdd gnd FILL
XFILL_1__1496_ vdd gnd FILL
XFILL_1__1565_ vdd gnd FILL
X_962_ _962_/A _962_/B _963_/B vdd gnd NAND2X1
XFILL_0__1310_ vdd gnd FILL
XFILL_0__1241_ vdd gnd FILL
XFILL_0__1172_ vdd gnd FILL
XFILL_1__974_ vdd gnd FILL
X_1303_ _1303_/A _1367_/B _1367_/A _1332_/A vdd gnd OAI21X1
XFILL_1__1350_ vdd gnd FILL
X_1096_ _1209_/C _1236_/B _1209_/B _1113_/C vdd gnd OAI21X1
X_1165_ _997_/Y _1166_/C vdd gnd INVX1
X_1234_ _1329_/C _1336_/B _1336_/A _1340_/B vdd gnd NAND3X1
XFILL_0__1508_ vdd gnd FILL
XFILL_0__1439_ vdd gnd FILL
XFILL_1__1281_ vdd gnd FILL
XFILL_1__1617_ vdd gnd FILL
XFILL_1__1548_ vdd gnd FILL
XFILL_1__1479_ vdd gnd FILL
XFILL_0__992_ vdd gnd FILL
X_945_ _962_/A _964_/C _946_/B vdd gnd NAND2X1
XFILL_0__1790_ vdd gnd FILL
XFILL_0__1224_ vdd gnd FILL
X_1852_ _1852_/A _1852_/B _1856_/B vdd gnd NOR2X1
XFILL_0__1155_ vdd gnd FILL
XFILL_0__1086_ vdd gnd FILL
X_1783_ _1836_/A _962_/B _1788_/C vdd gnd NAND2X1
XFILL_1__957_ vdd gnd FILL
XFILL_1__1402_ vdd gnd FILL
X_1148_ _1148_/A _1148_/B _1171_/B vdd gnd NAND2X1
X_1079_ _1645_/B _946_/B _1079_/C _1201_/C vdd gnd OAI21X1
X_1217_ _980_/B _1643_/B vdd gnd INVX1
XFILL_1__1333_ vdd gnd FILL
XFILL_1__1264_ vdd gnd FILL
XFILL_1__1195_ vdd gnd FILL
XFILL_2__1442_ vdd gnd FILL
XFILL_0__975_ vdd gnd FILL
X_928_ _962_/A _961_/A _964_/C _935_/C vdd gnd NAND3X1
XFILL_0__1773_ vdd gnd FILL
XFILL_2__1709_ vdd gnd FILL
XFILL_0__1842_ vdd gnd FILL
X_1002_ _1007_/A _1008_/C _1057_/C vdd gnd NOR2X1
X_1835_ _1866_/A _1866_/B _1861_/B _1854_/A vdd gnd AOI21X1
XFILL_0__1207_ vdd gnd FILL
XFILL_0__1138_ vdd gnd FILL
XFILL_0__1069_ vdd gnd FILL
XFILL_1__1882_ vdd gnd FILL
X_1766_ _964_/C _1766_/B _1863_/B _1767_/A vdd gnd OAI21X1
X_1697_ _961_/A _1729_/B vdd gnd INVX1
XFILL_1__1316_ vdd gnd FILL
XFILL_1__1247_ vdd gnd FILL
XFILL_1__1178_ vdd gnd FILL
XFILL_0__958_ vdd gnd FILL
XFILL_1_CLKBUF1_insert2 vdd gnd FILL
X_1551_ _1551_/A _1551_/B _1576_/B _1555_/B vdd gnd OAI21X1
X_1620_ ABCmd_i[0] LoadA_i _1621_/C vdd gnd NAND2X1
X_1482_ _1482_/A _1482_/B _1482_/C _1486_/B vdd gnd AOI21X1
XFILL_0__1756_ vdd gnd FILL
XFILL_0__1825_ vdd gnd FILL
XFILL_1__1101_ vdd gnd FILL
XFILL_0__1687_ vdd gnd FILL
X_1818_ _1818_/A _1818_/B _1866_/B _1874_/A vdd gnd OAI21X1
XFILL_1__1032_ vdd gnd FILL
XFILL_1__1865_ vdd gnd FILL
X_1749_ _1750_/A _964_/B _1842_/C _1750_/C vdd gnd OAI21X1
XFILL_1__1796_ vdd gnd FILL
XFILL_2__1141_ vdd gnd FILL
XFILL_0__1610_ vdd gnd FILL
XFILL_0__1472_ vdd gnd FILL
XFILL_0__1541_ vdd gnd FILL
X_1465_ _1465_/A _1465_/B _1465_/C _1488_/C vdd gnd NAND3X1
X_1534_ _1534_/A _1534_/B _1534_/C _1535_/B vdd gnd OAI21X1
X_1603_ _1843_/A _1605_/B vdd gnd INVX1
XFILL_1__1650_ vdd gnd FILL
X_1396_ _1396_/A _1396_/B _1410_/C vdd gnd NAND2X1
XFILL_1__1581_ vdd gnd FILL
XFILL_0__1739_ vdd gnd FILL
XFILL_0__1808_ vdd gnd FILL
XFILL_2__972_ vdd gnd FILL
XFILL_1__1015_ vdd gnd FILL
XFILL_1__1779_ vdd gnd FILL
XFILL_1__1848_ vdd gnd FILL
XFILL_1__990_ vdd gnd FILL
XFILL_0__1524_ vdd gnd FILL
X_1181_ _1181_/A _1181_/B _1181_/C _1480_/B vdd gnd OAI21X1
X_1250_ _1353_/C _1286_/B _1286_/A _1255_/B vdd gnd AOI21X1
XFILL_0__1455_ vdd gnd FILL
XFILL_0__1386_ vdd gnd FILL
XFILL_1__1633_ vdd gnd FILL
X_1448_ _1491_/C _1490_/A _1448_/C _1455_/A vdd gnd AOI21X1
X_1517_ _1525_/A _1517_/B _1518_/C vdd gnd NAND2X1
XFILL_1__1702_ vdd gnd FILL
X_1379_ _1629_/B _1548_/D _1382_/A _1380_/B vdd gnd OAI21X1
XFILL_1__1495_ vdd gnd FILL
XFILL_1__1564_ vdd gnd FILL
X_961_ _961_/A _963_/A vdd gnd INVX1
XFILL_0__1240_ vdd gnd FILL
XFILL_0__1171_ vdd gnd FILL
XFILL_1__973_ vdd gnd FILL
X_1302_ _1302_/A _1302_/B _1367_/B vdd gnd AND2X2
X_1233_ _1410_/A _1233_/B _1233_/C _1336_/B vdd gnd OAI21X1
XFILL_0__1507_ vdd gnd FILL
X_1164_ _1567_/A _1265_/C vdd gnd INVX1
X_1095_ _1095_/A _1095_/B _1095_/C _1113_/B vdd gnd AOI21X1
XFILL_1__1280_ vdd gnd FILL
XFILL_0__1438_ vdd gnd FILL
XFILL_0__1369_ vdd gnd FILL
XFILL_1__1616_ vdd gnd FILL
XFILL_0__991_ vdd gnd FILL
XFILL_1__1547_ vdd gnd FILL
XFILL_1__1478_ vdd gnd FILL
XFILL85950x50550 vdd gnd FILL
X_944_ _958_/B _946_/A vdd gnd INVX1
XFILL_0__1154_ vdd gnd FILL
X_1851_ _1851_/A _1851_/B _1852_/A vdd gnd NAND2X1
XFILL_0__1223_ vdd gnd FILL
X_1782_ _1782_/A _1782_/B _1782_/C _1797_/C vdd gnd AOI21X1
XFILL_0__1085_ vdd gnd FILL
XFILL_1__956_ vdd gnd FILL
X_1216_ _1218_/C _1216_/B _1294_/C vdd gnd OR2X2
XFILL_1__1401_ vdd gnd FILL
X_1147_ _1147_/A _1148_/B vdd gnd INVX1
X_1078_ _962_/A _980_/B _958_/C _1079_/C vdd gnd NAND3X1
XFILL_1__1332_ vdd gnd FILL
XFILL_1__1263_ vdd gnd FILL
XFILL_1__1194_ vdd gnd FILL
XFILL_0__974_ vdd gnd FILL
X_927_ _953_/C _927_/B _997_/A vdd gnd OR2X2
XFILL_0__1772_ vdd gnd FILL
XFILL_0__1841_ vdd gnd FILL
X_1001_ _1062_/A _961_/A _1823_/A _1008_/C vdd gnd NAND3X1
XFILL_0__1137_ vdd gnd FILL
X_1834_ _1859_/A _1874_/C vdd gnd INVX1
X_1765_ _1839_/A _980_/B _1765_/C _1839_/D _1767_/B vdd gnd AOI22X1
XFILL_0__1206_ vdd gnd FILL
XFILL_0__1068_ vdd gnd FILL
XFILL_1__1881_ vdd gnd FILL
XFILL86850x10950 vdd gnd FILL
X_1696_ _1836_/A _1863_/B vdd gnd INVX2
XFILL_1__939_ vdd gnd FILL
XFILL_1__1315_ vdd gnd FILL
XFILL_1__1246_ vdd gnd FILL
XFILL_1__1177_ vdd gnd FILL
XFILL_1_CLKBUF1_insert3 vdd gnd FILL
XFILL_0__957_ vdd gnd FILL
X_1550_ _1576_/A _1576_/B _1555_/C vdd gnd OR2X2
X_1481_ _1482_/A _1482_/B MulL_i _1482_/C vdd gnd OAI21X1
XFILL_0__1686_ vdd gnd FILL
XFILL_0__1755_ vdd gnd FILL
XFILL_0__1824_ vdd gnd FILL
XFILL_1__1100_ vdd gnd FILL
XFILL_1__1031_ vdd gnd FILL
X_1817_ _1871_/B _1817_/Y vdd gnd INVX1
X_1748_ _1748_/A _1748_/B _1748_/C _1756_/A vdd gnd OAI21X1
X_1679_ _1679_/D _1679_/CLK _964_/B vdd gnd DFFPOSX1
XFILL_1__1795_ vdd gnd FILL
XFILL_1__1864_ vdd gnd FILL
XFILL_1__1229_ vdd gnd FILL
XFILL_0__1540_ vdd gnd FILL
XFILL_0__1471_ vdd gnd FILL
X_1602_ LoadCmd_i _1602_/B _1602_/C _1654_/D vdd gnd OAI21X1
X_1464_ _1488_/B _1488_/A _1465_/C vdd gnd NAND2X1
X_1395_ _1444_/C _1442_/B _1442_/A _1396_/A vdd gnd OAI21X1
X_1533_ _1888_/A _1533_/B _1592_/C _1534_/B vdd gnd OAI21X1
XFILL_1__1580_ vdd gnd FILL
XFILL_0__1738_ vdd gnd FILL
XFILL_0__1807_ vdd gnd FILL
XFILL_1__1014_ vdd gnd FILL
XFILL86550x32550 vdd gnd FILL
XFILL_1__1778_ vdd gnd FILL
XFILL_1__1847_ vdd gnd FILL
X_1180_ _1180_/A _1181_/B vdd gnd INVX1
XFILL_0__1523_ vdd gnd FILL
XFILL_0__1454_ vdd gnd FILL
XFILL_0__1385_ vdd gnd FILL
X_1516_ _1583_/B _1522_/A vdd gnd INVX1
X_1447_ _1457_/A _1454_/B vdd gnd INVX1
XFILL_1__1632_ vdd gnd FILL
X_1378_ _1378_/A _1378_/B _1378_/C _1382_/A vdd gnd AOI21X1
XFILL_1__1701_ vdd gnd FILL
XFILL_1__1563_ vdd gnd FILL
XFILL_1__1494_ vdd gnd FILL
X_960_ _967_/A _967_/B _973_/C vdd gnd OR2X2
XFILL_2__1741_ vdd gnd FILL
XFILL_0__1170_ vdd gnd FILL
XFILL_2__1037_ vdd gnd FILL
XFILL_1__972_ vdd gnd FILL
X_1301_ _1302_/B _1302_/A _1303_/A vdd gnd NOR2X1
X_1232_ _1333_/B _1333_/A _1329_/C vdd gnd NAND2X1
XFILL_0__1506_ vdd gnd FILL
X_1163_ _1163_/A _1530_/B _1163_/C _1567_/A vdd gnd NAND3X1
XFILL_0__1437_ vdd gnd FILL
X_1094_ _1114_/A _1114_/B _1114_/C _1195_/B vdd gnd AOI21X1
XFILL_0__1368_ vdd gnd FILL
XFILL_0__1299_ vdd gnd FILL
XFILL_1__1615_ vdd gnd FILL
XFILL_1__1546_ vdd gnd FILL
XFILL_0__990_ vdd gnd FILL
XFILL_1__1477_ vdd gnd FILL
X_943_ _971_/C _957_/C vdd gnd INVX1
XFILL_0__1153_ vdd gnd FILL
XFILL_0__1222_ vdd gnd FILL
X_1781_ _1781_/A _1782_/C vdd gnd INVX1
X_1850_ _1850_/A _1850_/B _1851_/B vdd gnd NOR2X1
XFILL_0__1084_ vdd gnd FILL
XFILL_1__1400_ vdd gnd FILL
XFILL_1__955_ vdd gnd FILL
X_1146_ _952_/A _958_/B _979_/C _1147_/A vdd gnd NAND3X1
X_1215_ _1294_/A _1297_/A vdd gnd INVX1
X_1077_ _979_/B _1645_/B vdd gnd INVX1
XFILL_1__1331_ vdd gnd FILL
XFILL_1__1193_ vdd gnd FILL
XFILL_1__1262_ vdd gnd FILL
XFILL_1__1529_ vdd gnd FILL
XFILL_0__973_ vdd gnd FILL
XFILL_0__1840_ vdd gnd FILL
X_926_ _980_/B _926_/B _953_/C vdd gnd NAND2X1
XFILL_2__1638_ vdd gnd FILL
X_1000_ _1062_/A _958_/B _962_/B _1007_/A vdd gnd NAND3X1
XFILL_0__1771_ vdd gnd FILL
XFILL_0__1136_ vdd gnd FILL
X_1833_ _1871_/A _1833_/Y vdd gnd INVX1
XFILL_0__1067_ vdd gnd FILL
X_1764_ _964_/C _1766_/B _1765_/C vdd gnd NAND2X1
XFILL_0__1205_ vdd gnd FILL
XFILL_1__1880_ vdd gnd FILL
X_1695_ _961_/A _1695_/B _1839_/D _1695_/D _1702_/A vdd gnd AOI22X1
XFILL_1__938_ vdd gnd FILL
X_1129_ _937_/A _1143_/A vdd gnd INVX1
XFILL_1__1314_ vdd gnd FILL
XFILL_1__1176_ vdd gnd FILL
XFILL_1__1245_ vdd gnd FILL
XFILL_2__1285_ vdd gnd FILL
XFILL_0__956_ vdd gnd FILL
XFILL_1_CLKBUF1_insert4 vdd gnd FILL
X_1480_ _1480_/A _1480_/B _1482_/B vdd gnd NAND2X1
XFILL_0__1823_ vdd gnd FILL
XFILL_0__1754_ vdd gnd FILL
XFILL_0__1685_ vdd gnd FILL
XFILL_1__1030_ vdd gnd FILL
X_1678_ _1678_/D _1681_/CLK _958_/B vdd gnd DFFPOSX1
X_1816_ _1866_/A _1816_/B _1871_/B vdd gnd NAND2X1
XFILL_0__1119_ vdd gnd FILL
X_1747_ _980_/C _1747_/B _1863_/B _1748_/A vdd gnd OAI21X1
XFILL_1__1794_ vdd gnd FILL
XFILL_1__1863_ vdd gnd FILL
XFILL_1__1159_ vdd gnd FILL
XFILL_1__1228_ vdd gnd FILL
XFILL_0__1470_ vdd gnd FILL
XFILL_2__1337_ vdd gnd FILL
X_1601_ LoadCmd_i ABCmd_i[1] _1602_/C vdd gnd NAND2X1
XFILL_0__939_ vdd gnd FILL
X_1532_ Flag_i _1852_/B _1534_/A vdd gnd NOR2X1
X_1463_ _1463_/A _1510_/A _1463_/C _1465_/B vdd gnd NAND3X1
X_1394_ _1394_/A _1394_/B _1442_/B vdd gnd AND2X2
XFILL_0__1806_ vdd gnd FILL
XFILL_0__1599_ vdd gnd FILL
XFILL_0__1737_ vdd gnd FILL
XFILL_1__1013_ vdd gnd FILL
XFILL_1__1846_ vdd gnd FILL
XFILL_1__1777_ vdd gnd FILL
XFILL_2__1122_ vdd gnd FILL
XFILL_0__1453_ vdd gnd FILL
XFILL_0__1522_ vdd gnd FILL
XFILL_0__1384_ vdd gnd FILL
X_1515_ _1575_/A _1573_/A _1583_/B vdd gnd NAND2X1
XFILL_1__1700_ vdd gnd FILL
XFILL_1__1631_ vdd gnd FILL
X_1446_ _1448_/C _1490_/A _1491_/C _1457_/A vdd gnd NAND3X1
X_1377_ _1378_/C _1377_/B _1377_/C _1437_/C vdd gnd OAI21X1
XFILL_1__1562_ vdd gnd FILL
XFILL_2__953_ vdd gnd FILL
XFILL_1__1493_ vdd gnd FILL
XFILL_1__1829_ vdd gnd FILL
XFILL85950x10950 vdd gnd FILL
X_1162_ _997_/B _1185_/B _997_/A _1163_/C vdd gnd OAI21X1
XFILL_1__971_ vdd gnd FILL
X_1300_ _1826_/B _1370_/B _1302_/B vdd gnd NAND2X1
X_1231_ _1237_/B _1237_/A _1336_/A vdd gnd AND2X2
XFILL_0__1436_ vdd gnd FILL
XFILL_0__1505_ vdd gnd FILL
X_1093_ _1209_/C _1236_/B _1236_/A _1114_/B vdd gnd OAI21X1
XBUFX2_insert5 _1660_/Q _975_/A vdd gnd BUFX2
XFILL_0__1298_ vdd gnd FILL
XFILL_0__1367_ vdd gnd FILL
X_1429_ _1429_/A _1429_/B _1429_/C _1432_/C vdd gnd OAI21X1
XFILL_1__1614_ vdd gnd FILL
XFILL_1__1545_ vdd gnd FILL
XFILL_1__1476_ vdd gnd FILL
XFILL_2__1585_ vdd gnd FILL
X_942_ _946_/C _942_/B _971_/C vdd gnd NOR2X1
XFILL_0__1221_ vdd gnd FILL
XFILL_0__1152_ vdd gnd FILL
X_1780_ _1780_/A _1780_/B _1782_/A vdd gnd NAND2X1
XFILL_0__1083_ vdd gnd FILL
XFILL_1__954_ vdd gnd FILL
X_1145_ _1150_/C _1148_/A vdd gnd INVX1
XFILL_1__1330_ vdd gnd FILL
X_1214_ _1297_/C _1294_/B _1294_/A _1237_/A vdd gnd OAI21X1
XFILL_0__1419_ vdd gnd FILL
XFILL_1__1192_ vdd gnd FILL
X_1076_ _975_/A _958_/C _979_/B _1218_/C vdd gnd NAND3X1
XFILL_1__1261_ vdd gnd FILL
XFILL_1__1459_ vdd gnd FILL
XFILL_2__1370_ vdd gnd FILL
XFILL_1__1528_ vdd gnd FILL
XFILL_0__972_ vdd gnd FILL
X_925_ _925_/A _982_/A _926_/B vdd gnd NOR2X1
XFILL_0__1770_ vdd gnd FILL
X_1832_ _1832_/A _1848_/C _1871_/A vdd gnd NAND2X1
XFILL_0__1204_ vdd gnd FILL
XFILL_0__1135_ vdd gnd FILL
XFILL_0__1066_ vdd gnd FILL
X_1763_ _1837_/A _980_/B _1766_/B vdd gnd AND2X2
X_1694_ _975_/B _1729_/A _1695_/B vdd gnd NAND2X1
XFILL_1__937_ vdd gnd FILL
X_1128_ _927_/B _953_/C _1185_/C vdd gnd NOR2X1
XFILL_1__1313_ vdd gnd FILL
X_1059_ _975_/A _961_/A _1881_/B _1067_/C vdd gnd NAND3X1
XFILL_1__1244_ vdd gnd FILL
XFILL_1__1175_ vdd gnd FILL
XFILL_2__1422_ vdd gnd FILL
XFILL_0__955_ vdd gnd FILL
XFILL_0__1753_ vdd gnd FILL
XFILL_0__1822_ vdd gnd FILL
X_1815_ _1818_/A _1818_/B _1816_/B vdd gnd NAND2X1
X_1677_ _1677_/D _1684_/CLK _961_/A vdd gnd DFFPOSX1
XFILL_1__1862_ vdd gnd FILL
XFILL_0__1049_ vdd gnd FILL
XFILL_0__1118_ vdd gnd FILL
X_1746_ _1839_/A _964_/B _1746_/C _1839_/D _1748_/B vdd gnd AOI22X1
XFILL_1__1793_ vdd gnd FILL
XFILL_1_BUFX2_insert5 vdd gnd FILL
XFILL_1__1158_ vdd gnd FILL
XFILL_1__1089_ vdd gnd FILL
XFILL_1__1227_ vdd gnd FILL
XFILL_0__938_ vdd gnd FILL
X_1462_ _1462_/A _1462_/B _1462_/C _1463_/C vdd gnd OAI21X1
X_1531_ MulL_i _1531_/B _1539_/A _1534_/C vdd gnd NAND3X1
X_1600_ _1729_/A _1602_/B vdd gnd INVX1
X_1393_ _1394_/A _1394_/B _1444_/C vdd gnd NOR2X1
XFILL_0__1736_ vdd gnd FILL
XFILL_0__1805_ vdd gnd FILL
XFILL_0__1598_ vdd gnd FILL
XFILL_1__1012_ vdd gnd FILL
XFILL86250x39750 vdd gnd FILL
XFILL_1__1845_ vdd gnd FILL
X_1729_ _1729_/A _1729_/B _1744_/A _1731_/B vdd gnd MUX2X1
XFILL86250x82950 vdd gnd FILL
XFILL_1__1776_ vdd gnd FILL
XFILL_2__1885_ vdd gnd FILL
XFILL_0__1383_ vdd gnd FILL
XFILL_0__1452_ vdd gnd FILL
XFILL_0__1521_ vdd gnd FILL
X_1445_ _1631_/B _1548_/D _1445_/C _1490_/A vdd gnd OAI21X1
X_1514_ _1514_/A _1514_/B _1514_/C _1575_/A vdd gnd NAND3X1
XFILL_1__1630_ vdd gnd FILL
XFILL_1__1492_ vdd gnd FILL
X_1376_ _1382_/B _1377_/C vdd gnd INVX1
XFILL_1__1561_ vdd gnd FILL
XFILL86850x18150 vdd gnd FILL
XFILL_0__1719_ vdd gnd FILL
XFILL_1__1828_ vdd gnd FILL
XFILL_1__1759_ vdd gnd FILL
XFILL_1__970_ vdd gnd FILL
X_1161_ _1161_/A _1161_/B _1161_/C _1185_/B vdd gnd AOI21X1
XBUFX2_insert6 _1660_/Q _980_/A vdd gnd BUFX2
X_1092_ _1092_/A _1092_/B _1236_/A vdd gnd NAND2X1
X_1230_ _1238_/B _1329_/A _1238_/A _1340_/A vdd gnd NAND3X1
XFILL_0__1435_ vdd gnd FILL
XFILL_0__1504_ vdd gnd FILL
XFILL_0__1366_ vdd gnd FILL
XFILL_0__1297_ vdd gnd FILL
XFILL_1__1613_ vdd gnd FILL
XFILL_1_BUFX2_insert10 vdd gnd FILL
X_1428_ _1592_/C _1428_/B _1429_/C vdd gnd NOR2X1
XFILL_1__1544_ vdd gnd FILL
XFILL_1__1475_ vdd gnd FILL
X_1359_ _1474_/A _1521_/B _1523_/A _1361_/B vdd gnd OAI21X1
X_941_ _980_/A _958_/B _964_/C _942_/B vdd gnd NAND3X1
XFILL_2__1722_ vdd gnd FILL
XFILL_0__1220_ vdd gnd FILL
XFILL_0__1151_ vdd gnd FILL
XFILL_0__1082_ vdd gnd FILL
XFILL_1__953_ vdd gnd FILL
X_1213_ _1218_/C _1216_/B _1294_/B vdd gnd AND2X2
X_1144_ _952_/A _961_/A _980_/C _1150_/C vdd gnd NAND3X1
X_1075_ _1084_/A _1201_/D vdd gnd INVX1
XFILL_1__1260_ vdd gnd FILL
XFILL_0__1418_ vdd gnd FILL
XFILL_0__1349_ vdd gnd FILL
XFILL_1__1191_ vdd gnd FILL
XFILL_1__1458_ vdd gnd FILL
XFILL_1__1389_ vdd gnd FILL
XFILL_0__971_ vdd gnd FILL
XFILL_1__1527_ vdd gnd FILL
X_924_ _979_/C _982_/A vdd gnd INVX2
XFILL_0__1134_ vdd gnd FILL
X_1831_ _1866_/B _1861_/B _1866_/A _1832_/A vdd gnd NAND3X1
XFILL_0__1203_ vdd gnd FILL
XFILL_0__1065_ vdd gnd FILL
X_1693_ _961_/A _1837_/A _1695_/D vdd gnd NAND2X1
X_1762_ _1836_/A _958_/C _1767_/C vdd gnd NAND2X1
XFILL_1__936_ vdd gnd FILL
XFILL_1__1312_ vdd gnd FILL
X_1058_ _975_/A _958_/B _1823_/A _1065_/A vdd gnd NAND3X1
XFILL_1__1243_ vdd gnd FILL
X_1127_ _1127_/A _1127_/B _1127_/C _1591_/A vdd gnd AOI21X1
XFILL_1__1174_ vdd gnd FILL
XFILL_0__954_ vdd gnd FILL
XFILL_0__1752_ vdd gnd FILL
XFILL_0__1821_ vdd gnd FILL
X_1814_ _1814_/A _1814_/B _1814_/C _1818_/B vdd gnd AOI21X1
XFILL_0__1117_ vdd gnd FILL
X_1745_ _980_/C _1747_/B _1746_/C vdd gnd NAND2X1
X_1676_ _1676_/D _1683_/CLK _1881_/B vdd gnd DFFPOSX1
XFILL_0__1048_ vdd gnd FILL
XFILL_1__1861_ vdd gnd FILL
XFILL_1__1792_ vdd gnd FILL
XFILL_1_BUFX2_insert6 vdd gnd FILL
XFILL_1__1226_ vdd gnd FILL
XFILL_1__1157_ vdd gnd FILL
XFILL_1__1088_ vdd gnd FILL
XFILL_0__937_ vdd gnd FILL
X_1461_ _1461_/A _1461_/B _1461_/C _1470_/A vdd gnd NAND3X1
X_1392_ _1444_/A _1444_/B _1442_/C _1396_/B vdd gnd NAND3X1
X_1530_ _1530_/A _1530_/B _1530_/C _1531_/B vdd gnd OAI21X1
XFILL_0__1735_ vdd gnd FILL
XFILL_0__1804_ vdd gnd FILL
XFILL_0__1597_ vdd gnd FILL
XFILL_1__1011_ vdd gnd FILL
X_1728_ _1752_/A _1842_/C _1733_/B _1734_/B vdd gnd OAI21X1
X_1659_ _1659_/D _1684_/CLK _1858_/A vdd gnd DFFPOSX1
XFILL_1__1844_ vdd gnd FILL
XFILL_1__1775_ vdd gnd FILL
XFILL_1__1209_ vdd gnd FILL
XFILL_0__1520_ vdd gnd FILL
XFILL_0__1382_ vdd gnd FILL
XFILL_2__1318_ vdd gnd FILL
XFILL_0__1451_ vdd gnd FILL
X_1513_ _1513_/A _1513_/B _1573_/A vdd gnd NAND2X1
X_1444_ _1444_/A _1444_/B _1444_/C _1445_/C vdd gnd AOI21X1
X_1375_ _1826_/B _1440_/B _1382_/B vdd gnd NAND2X1
XFILL_1__1491_ vdd gnd FILL
XFILL_0__1649_ vdd gnd FILL
XFILL_1__1560_ vdd gnd FILL
XFILL_0__1718_ vdd gnd FILL
XFILL_1__1758_ vdd gnd FILL
XFILL_1__1827_ vdd gnd FILL
XFILL_1__1689_ vdd gnd FILL
X_1160_ _1187_/A _1530_/B vdd gnd INVX1
XBUFX2_insert7 _1660_/Q _923_/A vdd gnd BUFX2
XFILL_0__1503_ vdd gnd FILL
X_1091_ _935_/A _1501_/A _1091_/C _1092_/B vdd gnd OAI21X1
XFILL_0__1365_ vdd gnd FILL
XFILL_0__1296_ vdd gnd FILL
XFILL_0__1434_ vdd gnd FILL
XFILL_1__1612_ vdd gnd FILL
XFILL_1_BUFX2_insert11 vdd gnd FILL
X_1427_ _1427_/A _1427_/B _1429_/B vdd gnd AND2X2
X_1358_ _1358_/A _1523_/A _1523_/B _1362_/A vdd gnd AOI21X1
XFILL_1__1543_ vdd gnd FILL
XFILL_1__1474_ vdd gnd FILL
X_1289_ _1289_/A _1344_/B _1289_/C _1290_/C vdd gnd NOR3X1
X_940_ _952_/A _961_/A _958_/C _946_/C vdd gnd NAND3X1
XFILL_0__1150_ vdd gnd FILL
XFILL_0__1081_ vdd gnd FILL
XFILL_2__1017_ vdd gnd FILL
XFILL_1__952_ vdd gnd FILL
X_1212_ _1218_/C _1216_/B _1297_/C vdd gnd NOR2X1
XFILL_0__1417_ vdd gnd FILL
X_1143_ _1143_/A _936_/A _937_/C _1156_/A vdd gnd NAND3X1
X_1074_ _975_/A _977_/A _980_/C _1084_/A vdd gnd NAND3X1
XFILL_0__1348_ vdd gnd FILL
XFILL_1__1190_ vdd gnd FILL
XFILL_0__1279_ vdd gnd FILL
XFILL_1__1526_ vdd gnd FILL
XFILL_1__1457_ vdd gnd FILL
XFILL_1__1388_ vdd gnd FILL
XFILL_0__970_ vdd gnd FILL
X_923_ _923_/A _925_/A vdd gnd INVX1
XFILL_2__1566_ vdd gnd FILL
XFILL_0__1133_ vdd gnd FILL
X_1830_ _1874_/B _1874_/A _1848_/C vdd gnd NAND2X1
X_1761_ _1794_/B _1794_/A _1795_/B vdd gnd AND2X2
XFILL_0__1202_ vdd gnd FILL
XFILL_0__1064_ vdd gnd FILL
X_1692_ _1744_/A _1837_/A vdd gnd INVX2
XFILL_1__935_ vdd gnd FILL
XFILL_0__1897_ vdd gnd FILL
X_1126_ _1127_/C _1127_/B _1127_/A _1262_/A vdd gnd NAND3X1
XFILL_1__1311_ vdd gnd FILL
X_1057_ _1057_/A _1057_/B _1057_/C _1088_/C vdd gnd AOI21X1
XFILL_1__1242_ vdd gnd FILL
XFILL_1__1173_ vdd gnd FILL
XFILL_1__1509_ vdd gnd FILL
XFILL85950x18150 vdd gnd FILL
XFILL_0__953_ vdd gnd FILL
XFILL_0__1820_ vdd gnd FILL
XFILL_2__1618_ vdd gnd FILL
XFILL_0__1751_ vdd gnd FILL
X_1813_ _1814_/C _1813_/B _1813_/C _1866_/A vdd gnd OAI21X1
XFILL_0__1047_ vdd gnd FILL
XFILL_0__1116_ vdd gnd FILL
X_1744_ _1744_/A _1744_/B _1747_/B vdd gnd NOR2X1
X_1675_ _1675_/D _1683_/CLK _1823_/A vdd gnd DFFPOSX1
XFILL_1__1860_ vdd gnd FILL
XFILL_1__1791_ vdd gnd FILL
XFILL_1_BUFX2_insert7 vdd gnd FILL
XFILL86850x46950 vdd gnd FILL
X_1109_ _982_/A _1548_/D _1109_/C _1110_/B vdd gnd OAI21X1
XFILL_1__1156_ vdd gnd FILL
XFILL_1__1225_ vdd gnd FILL
XFILL_1__1087_ vdd gnd FILL
XFILL_2__1265_ vdd gnd FILL
XFILL_0__936_ vdd gnd FILL
X_1460_ _1460_/A _1460_/B _1488_/B _1461_/B vdd gnd OAI21X1
X_1391_ _1633_/B _982_/B _1394_/B _1444_/B vdd gnd OAI21X1
XFILL_0__1803_ vdd gnd FILL
XFILL_0__1734_ vdd gnd FILL
XFILL_0__1596_ vdd gnd FILL
XFILL_1__1010_ vdd gnd FILL
X_1727_ _1727_/A _1733_/B vdd gnd INVX1
X_1658_ _1658_/D _1684_/CLK _1836_/A vdd gnd DFFPOSX1
XFILL86850x21750 vdd gnd FILL
X_1589_ _1589_/A _1589_/B _1589_/C _1590_/B vdd gnd OAI21X1
XFILL_1__1774_ vdd gnd FILL
XFILL_1__1843_ vdd gnd FILL
XFILL_1__1139_ vdd gnd FILL
XFILL_2__1050_ vdd gnd FILL
XFILL_1__1208_ vdd gnd FILL
XFILL_0__1450_ vdd gnd FILL
XFILL_0__1381_ vdd gnd FILL
X_1512_ _1514_/B _1514_/C _1513_/B vdd gnd NAND2X1
X_1443_ _962_/B _1577_/B _1443_/C _1491_/C vdd gnd NAND3X1
X_1374_ _925_/A _1629_/B _1440_/B vdd gnd NOR2X1
XFILL_0__1648_ vdd gnd FILL
XFILL_1__1490_ vdd gnd FILL
XFILL_0__1579_ vdd gnd FILL
XFILL_0__1717_ vdd gnd FILL
XFILL86550x68550 vdd gnd FILL
XFILL_1__1757_ vdd gnd FILL
XFILL_1__1688_ vdd gnd FILL
XFILL_1__1826_ vdd gnd FILL
XFILL_2__1102_ vdd gnd FILL
XFILL_2__1866_ vdd gnd FILL
XFILL_0__1502_ vdd gnd FILL
X_1090_ _952_/A _977_/A _1501_/A vdd gnd NAND2X1
XBUFX2_insert8 _1660_/Q _962_/A vdd gnd BUFX2
XFILL_0__1433_ vdd gnd FILL
XFILL_0__1295_ vdd gnd FILL
XFILL_0__1364_ vdd gnd FILL
X_1426_ _1472_/C _1426_/B _1434_/B vdd gnd NAND2X1
XFILL_1__1611_ vdd gnd FILL
X_1288_ _1354_/A _1420_/A vdd gnd INVX1
X_1357_ _1523_/C _1520_/D _1523_/B vdd gnd NAND2X1
XFILL_1_BUFX2_insert12 vdd gnd FILL
XFILL_1__1542_ vdd gnd FILL
XFILL_1__1473_ vdd gnd FILL
XFILL86550x43350 vdd gnd FILL
XFILL_2__933_ vdd gnd FILL
XFILL_2__1651_ vdd gnd FILL
XFILL_1__1809_ vdd gnd FILL
XFILL_0__1080_ vdd gnd FILL