* XSpice netlist created from SPICE and liberty sources by spi2xspice.py
*SPICE netlist created from verilog structural netlist module fxp_sqrt_top by vlog2Spice (qflow)
** Start of included library /usr/local/share/qflow/tech/etri050/etri050_stdcells.sp
* NGSPICE file created from khu_etri050_stdcells.ext - technology: scmos
** End of included library /usr/local/share/qflow/tech/etri050/etri050_stdcells.sp
.subckt fxp_sqrt_top a_vdd a_gnd a_ap_clk a_ap_done a_ap_idle a_ap_ready a_ap_return_0_ a_ap_return_1_ a_ap_return_2_ a_ap_return_3_ a_ap_return_4_ a_ap_return_5_ a_ap_return_6_ a_ap_return_7_ a_ap_return_8_ a_ap_return_9_ a_ap_return_10_ a_ap_return_11_ a_ap_return_12_ a_ap_return_13_ a_ap_return_14_ a_ap_return_15_ a_ap_return_16_ a_ap_return_17_ a_ap_return_18_ a_ap_return_19_ a_ap_return_20_ a_ap_return_21_ a_ap_return_22_ a_ap_return_23_ a_ap_return_24_ a_ap_return_25_ a_ap_return_26_ a_ap_return_27_ a_ap_rst a_ap_start a_in_val_0_ a_in_val_1_ a_in_val_2_ a_in_val_3_ a_in_val_4_ a_in_val_5_ a_in_val_6_ a_in_val_7_ a_in_val_8_ a_in_val_9_ a_in_val_10_ a_in_val_11_ a_in_val_12_ a_in_val_13_ a_in_val_14_ a_in_val_15_ a_in_val_16_ a_in_val_17_ a_in_val_18_ a_in_val_19_ a_in_val_20_ a_in_val_21_ a_in_val_22_ a_in_val_23_
ABUFX2_insert144 [\grp_fxp_sqrt_top_Pipeline_VITIS_LOOP_104_1_fu_58.ap_loop_init\] \grp_fxp_sqrt_top_Pipeline_VITIS_LOOP_104_1_fu_58.ap_loop_init_bF$buf0\ d_lut_BUFX2
ABUFX2_insert143 [\grp_fxp_sqrt_top_Pipeline_VITIS_LOOP_104_1_fu_58.ap_loop_init\] \grp_fxp_sqrt_top_Pipeline_VITIS_LOOP_104_1_fu_58.ap_loop_init_bF$buf1\ d_lut_BUFX2
ABUFX2_insert142 [\grp_fxp_sqrt_top_Pipeline_VITIS_LOOP_104_1_fu_58.ap_loop_init\] \grp_fxp_sqrt_top_Pipeline_VITIS_LOOP_104_1_fu_58.ap_loop_init_bF$buf2\ d_lut_BUFX2
ABUFX2_insert141 [\grp_fxp_sqrt_top_Pipeline_VITIS_LOOP_104_1_fu_58.ap_loop_init\] \grp_fxp_sqrt_top_Pipeline_VITIS_LOOP_104_1_fu_58.ap_loop_init_bF$buf3\ d_lut_BUFX2
ABUFX2_insert140 [\grp_fxp_sqrt_top_Pipeline_VITIS_LOOP_104_1_fu_58.ap_loop_init\] \grp_fxp_sqrt_top_Pipeline_VITIS_LOOP_104_1_fu_58.ap_loop_init_bF$buf4\ d_lut_BUFX2
ABUFX2_insert139 [_1034_] _1034__bF$buf0 d_lut_BUFX2
ABUFX2_insert138 [_1034_] _1034__bF$buf1 d_lut_BUFX2
ABUFX2_insert137 [_1034_] _1034__bF$buf2 d_lut_BUFX2
ABUFX2_insert136 [_1034_] _1034__bF$buf3 d_lut_BUFX2
ABUFX2_insert135 [_941_] _941__bF$buf0 d_lut_BUFX2
ABUFX2_insert134 [_941_] _941__bF$buf1 d_lut_BUFX2
ABUFX2_insert133 [_941_] _941__bF$buf2 d_lut_BUFX2
ABUFX2_insert132 [_941_] _941__bF$buf3 d_lut_BUFX2
ABUFX2_insert131 [_941_] _941__bF$buf4 d_lut_BUFX2
ABUFX2_insert130 [_941_] _941__bF$buf5 d_lut_BUFX2
ABUFX2_insert129 [_941_] _941__bF$buf6 d_lut_BUFX2
ABUFX2_insert128 [_941_] _941__bF$buf7 d_lut_BUFX2
ABUFX2_insert127 [_941_] _941__bF$buf8 d_lut_BUFX2
ABUFX2_insert126 [ap_CS_fsm_state1] ap_CS_fsm_state1_bF$buf0 d_lut_BUFX2
ABUFX2_insert125 [ap_CS_fsm_state1] ap_CS_fsm_state1_bF$buf1 d_lut_BUFX2
ABUFX2_insert124 [ap_CS_fsm_state1] ap_CS_fsm_state1_bF$buf2 d_lut_BUFX2
ABUFX2_insert123 [ap_CS_fsm_state1] ap_CS_fsm_state1_bF$buf3 d_lut_BUFX2
ABUFX2_insert122 [ap_CS_fsm_state1] ap_CS_fsm_state1_bF$buf4 d_lut_BUFX2
ABUFX2_insert121 [ap_CS_fsm_state1] ap_CS_fsm_state1_bF$buf5 d_lut_BUFX2
ABUFX2_insert120 [ap_CS_fsm_state1] ap_CS_fsm_state1_bF$buf6 d_lut_BUFX2
ABUFX2_insert119 [_1046_] _1046__bF$buf0 d_lut_BUFX2
ABUFX2_insert118 [_1046_] _1046__bF$buf1 d_lut_BUFX2
ABUFX2_insert117 [_1046_] _1046__bF$buf2 d_lut_BUFX2
ABUFX2_insert116 [_1046_] _1046__bF$buf3 d_lut_BUFX2
ABUFX2_insert115 [_1046_] _1046__bF$buf4 d_lut_BUFX2
ABUFX2_insert114 [_1046_] _1046__bF$buf5 d_lut_BUFX2
ABUFX2_insert113 [_1046_] _1046__bF$buf6 d_lut_BUFX2
ABUFX2_insert112 [_1046_] _1046__bF$buf7 d_lut_BUFX2
ABUFX2_insert111 [_339_] _339__bF$buf0 d_lut_BUFX2
ABUFX2_insert110 [_339_] _339__bF$buf1 d_lut_BUFX2
ABUFX2_insert109 [_339_] _339__bF$buf2 d_lut_BUFX2
ABUFX2_insert108 [_339_] _339__bF$buf3 d_lut_BUFX2
ABUFX2_insert107 [_339_] _339__bF$buf4 d_lut_BUFX2
ABUFX2_insert106 [_339_] _339__bF$buf5 d_lut_BUFX2
ABUFX2_insert105 [_339_] _339__bF$buf6 d_lut_BUFX2
ABUFX2_insert104 [_436_] _436__bF$buf0 d_lut_BUFX2
ABUFX2_insert103 [_436_] _436__bF$buf1 d_lut_BUFX2
ABUFX2_insert102 [_436_] _436__bF$buf2 d_lut_BUFX2
ABUFX2_insert101 [_436_] _436__bF$buf3 d_lut_BUFX2
ABUFX2_insert100 [_436_] _436__bF$buf4 d_lut_BUFX2
ABUFX2_insert99 [_436_] _436__bF$buf5 d_lut_BUFX2
ABUFX2_insert98 [_436_] _436__bF$buf6 d_lut_BUFX2
ABUFX2_insert97 [_151_] _151__bF$buf0 d_lut_BUFX2
ABUFX2_insert96 [_151_] _151__bF$buf1 d_lut_BUFX2
ABUFX2_insert95 [_151_] _151__bF$buf2 d_lut_BUFX2
ABUFX2_insert94 [_151_] _151__bF$buf3 d_lut_BUFX2
ABUFX2_insert93 [_151_] _151__bF$buf4 d_lut_BUFX2
ABUFX2_insert92 [_151_] _151__bF$buf5 d_lut_BUFX2
ABUFX2_insert91 [_151_] _151__bF$buf6 d_lut_BUFX2
ABUFX2_insert90 [_1087_] _1087__bF$buf0 d_lut_BUFX2
ABUFX2_insert89 [_1087_] _1087__bF$buf1 d_lut_BUFX2
ABUFX2_insert88 [_1087_] _1087__bF$buf2 d_lut_BUFX2
ABUFX2_insert87 [_1087_] _1087__bF$buf3 d_lut_BUFX2
ABUFX2_insert86 [_1087_] _1087__bF$buf4 d_lut_BUFX2
ABUFX2_insert85 [_1052_] _1052__bF$buf0 d_lut_BUFX2
ABUFX2_insert84 [_1052_] _1052__bF$buf1 d_lut_BUFX2
ABUFX2_insert83 [_1052_] _1052__bF$buf2 d_lut_BUFX2
ABUFX2_insert82 [_1052_] _1052__bF$buf3 d_lut_BUFX2
ABUFX2_insert81 [_1052_] _1052__bF$buf4 d_lut_BUFX2
ABUFX2_insert80 [_1052_] _1052__bF$buf5 d_lut_BUFX2
ABUFX2_insert79 [\grp_fxp_sqrt_top_Pipeline_VITIS_LOOP_104_1_fu_58.i1_fu_60\_1_] \grp_fxp_sqrt_top_Pipeline_VITIS_LOOP_104_1_fu_58.i1_fu_60_1_bF$buf0\ d_lut_BUFX2
ABUFX2_insert78 [\grp_fxp_sqrt_top_Pipeline_VITIS_LOOP_104_1_fu_58.i1_fu_60\_1_] \grp_fxp_sqrt_top_Pipeline_VITIS_LOOP_104_1_fu_58.i1_fu_60_1_bF$buf1\ d_lut_BUFX2
ABUFX2_insert77 [\grp_fxp_sqrt_top_Pipeline_VITIS_LOOP_104_1_fu_58.i1_fu_60\_1_] \grp_fxp_sqrt_top_Pipeline_VITIS_LOOP_104_1_fu_58.i1_fu_60_1_bF$buf2\ d_lut_BUFX2
ABUFX2_insert76 [\grp_fxp_sqrt_top_Pipeline_VITIS_LOOP_104_1_fu_58.i1_fu_60\_1_] \grp_fxp_sqrt_top_Pipeline_VITIS_LOOP_104_1_fu_58.i1_fu_60_1_bF$buf3\ d_lut_BUFX2
ABUFX2_insert75 [\grp_fxp_sqrt_top_Pipeline_VITIS_LOOP_104_1_fu_58.i1_fu_60\_1_] \grp_fxp_sqrt_top_Pipeline_VITIS_LOOP_104_1_fu_58.i1_fu_60_1_bF$buf4\ d_lut_BUFX2
ABUFX2_insert74 [\grp_fxp_sqrt_top_Pipeline_VITIS_LOOP_104_1_fu_58.i1_fu_60\_1_] \grp_fxp_sqrt_top_Pipeline_VITIS_LOOP_104_1_fu_58.i1_fu_60_1_bF$buf5\ d_lut_BUFX2
ABUFX2_insert73 [_1064_] _1064__bF$buf0 d_lut_BUFX2
ABUFX2_insert72 [_1064_] _1064__bF$buf1 d_lut_BUFX2
ABUFX2_insert71 [_1064_] _1064__bF$buf2 d_lut_BUFX2
ABUFX2_insert70 [_1064_] _1064__bF$buf3 d_lut_BUFX2
ABUFX2_insert69 [_1064_] _1064__bF$buf4 d_lut_BUFX2
ABUFX2_insert68 [_1064_] _1064__bF$buf5 d_lut_BUFX2
ACLKBUF1_insert67 [ap_clk] ap_clk_bF$buf0 d_lut_CLKBUF1
ACLKBUF1_insert66 [ap_clk] ap_clk_bF$buf1 d_lut_CLKBUF1
ACLKBUF1_insert65 [ap_clk] ap_clk_bF$buf2 d_lut_CLKBUF1
ACLKBUF1_insert64 [ap_clk] ap_clk_bF$buf3 d_lut_CLKBUF1
ACLKBUF1_insert63 [ap_clk] ap_clk_bF$buf4 d_lut_CLKBUF1
ACLKBUF1_insert62 [ap_clk] ap_clk_bF$buf5 d_lut_CLKBUF1
ACLKBUF1_insert61 [ap_clk] ap_clk_bF$buf6 d_lut_CLKBUF1
ACLKBUF1_insert60 [ap_clk] ap_clk_bF$buf7 d_lut_CLKBUF1
ACLKBUF1_insert59 [ap_clk] ap_clk_bF$buf8 d_lut_CLKBUF1
ACLKBUF1_insert58 [ap_clk] ap_clk_bF$buf9 d_lut_CLKBUF1
ACLKBUF1_insert57 [ap_clk] ap_clk_bF$buf10 d_lut_CLKBUF1
ACLKBUF1_insert56 [ap_clk] ap_clk_bF$buf11 d_lut_CLKBUF1
ACLKBUF1_insert55 [ap_clk] ap_clk_bF$buf12 d_lut_CLKBUF1
ABUFX2_insert54 [_948_] _948__bF$buf0 d_lut_BUFX2
ABUFX2_insert53 [_948_] _948__bF$buf1 d_lut_BUFX2
ABUFX2_insert52 [_948_] _948__bF$buf2 d_lut_BUFX2
ABUFX2_insert51 [_948_] _948__bF$buf3 d_lut_BUFX2
ABUFX2_insert50 [_948_] _948__bF$buf4 d_lut_BUFX2
ABUFX2_insert49 [_1050_] _1050__bF$buf0 d_lut_BUFX2
ABUFX2_insert48 [_1050_] _1050__bF$buf1 d_lut_BUFX2
ABUFX2_insert47 [_1050_] _1050__bF$buf2 d_lut_BUFX2
ABUFX2_insert46 [_1050_] _1050__bF$buf3 d_lut_BUFX2
ABUFX2_insert45 [_1050_] _1050__bF$buf4 d_lut_BUFX2
ABUFX2_insert44 [_1050_] _1050__bF$buf5 d_lut_BUFX2
ABUFX2_insert43 [\grp_fxp_sqrt_top_Pipeline_VITIS_LOOP_104_1_fu_58.tmp_fu_139_p3\_0_] \grp_fxp_sqrt_top_Pipeline_VITIS_LOOP_104_1_fu_58.tmp_fu_139_p3_bF$buf0\ d_lut_BUFX2
ABUFX2_insert42 [\grp_fxp_sqrt_top_Pipeline_VITIS_LOOP_104_1_fu_58.tmp_fu_139_p3\] \grp_fxp_sqrt_top_Pipeline_VITIS_LOOP_104_1_fu_58.tmp_fu_139_p3_bF$buf1\ d_lut_BUFX2
ABUFX2_insert41 [\grp_fxp_sqrt_top_Pipeline_VITIS_LOOP_104_1_fu_58.tmp_fu_139_p3\_0_] \grp_fxp_sqrt_top_Pipeline_VITIS_LOOP_104_1_fu_58.tmp_fu_139_p3_bF$buf2\ d_lut_BUFX2
ABUFX2_insert40 [\grp_fxp_sqrt_top_Pipeline_VITIS_LOOP_104_1_fu_58.tmp_fu_139_p3\] \grp_fxp_sqrt_top_Pipeline_VITIS_LOOP_104_1_fu_58.tmp_fu_139_p3_bF$buf3\ d_lut_BUFX2
ABUFX2_insert39 [\grp_fxp_sqrt_top_Pipeline_VITIS_LOOP_104_1_fu_58.tmp_fu_139_p3\_0_] \grp_fxp_sqrt_top_Pipeline_VITIS_LOOP_104_1_fu_58.tmp_fu_139_p3_bF$buf4\ d_lut_BUFX2
ABUFX2_insert38 [\grp_fxp_sqrt_top_Pipeline_VITIS_LOOP_104_1_fu_58.tmp_fu_139_p3\] \grp_fxp_sqrt_top_Pipeline_VITIS_LOOP_104_1_fu_58.tmp_fu_139_p3_bF$buf5\ d_lut_BUFX2
ABUFX2_insert37 [_1027_] _1027__bF$buf0 d_lut_BUFX2
ABUFX2_insert36 [_1027_] _1027__bF$buf1 d_lut_BUFX2
ABUFX2_insert35 [_1027_] _1027__bF$buf2 d_lut_BUFX2
ABUFX2_insert34 [_1027_] _1027__bF$buf3 d_lut_BUFX2
ABUFX2_insert33 [_1027_] _1027__bF$buf4 d_lut_BUFX2
ABUFX2_insert32 [_1027_] _1027__bF$buf5 d_lut_BUFX2
ABUFX2_insert31 [_467_] _467__bF$buf0 d_lut_BUFX2
ABUFX2_insert30 [_467_] _467__bF$buf1 d_lut_BUFX2
ABUFX2_insert29 [_467_] _467__bF$buf2 d_lut_BUFX2
ABUFX2_insert28 [_467_] _467__bF$buf3 d_lut_BUFX2
ABUFX2_insert27 [_467_] _467__bF$buf4 d_lut_BUFX2
ABUFX2_insert26 [_467_] _467__bF$buf5 d_lut_BUFX2
ABUFX2_insert25 [_467_] _467__bF$buf6 d_lut_BUFX2
ABUFX2_insert24 [_955_] _955__bF$buf0 d_lut_BUFX2
ABUFX2_insert23 [_955_] _955__bF$buf1 d_lut_BUFX2
ABUFX2_insert22 [_955_] _955__bF$buf2 d_lut_BUFX2
ABUFX2_insert21 [_955_] _955__bF$buf3 d_lut_BUFX2
ABUFX2_insert20 [_955_] _955__bF$buf4 d_lut_BUFX2
ABUFX2_insert19 [\grp_fxp_sqrt_top_Pipeline_VITIS_LOOP_104_1_fu_58.i1_fu_60\_0_] \grp_fxp_sqrt_top_Pipeline_VITIS_LOOP_104_1_fu_58.i1_fu_60_0_bF$buf0\ d_lut_BUFX2
ABUFX2_insert18 [\grp_fxp_sqrt_top_Pipeline_VITIS_LOOP_104_1_fu_58.i1_fu_60\_0_] \grp_fxp_sqrt_top_Pipeline_VITIS_LOOP_104_1_fu_58.i1_fu_60_0_bF$buf1\ d_lut_BUFX2
ABUFX2_insert17 [\grp_fxp_sqrt_top_Pipeline_VITIS_LOOP_104_1_fu_58.i1_fu_60\_0_] \grp_fxp_sqrt_top_Pipeline_VITIS_LOOP_104_1_fu_58.i1_fu_60_0_bF$buf2\ d_lut_BUFX2
ABUFX2_insert16 [\grp_fxp_sqrt_top_Pipeline_VITIS_LOOP_104_1_fu_58.i1_fu_60\_0_] \grp_fxp_sqrt_top_Pipeline_VITIS_LOOP_104_1_fu_58.i1_fu_60_0_bF$buf3\ d_lut_BUFX2
ABUFX2_insert15 [\grp_fxp_sqrt_top_Pipeline_VITIS_LOOP_104_1_fu_58.i1_fu_60\_0_] \grp_fxp_sqrt_top_Pipeline_VITIS_LOOP_104_1_fu_58.i1_fu_60_0_bF$buf4\ d_lut_BUFX2
ABUFX2_insert14 [\grp_fxp_sqrt_top_Pipeline_VITIS_LOOP_104_1_fu_58.i1_fu_60\_0_] \grp_fxp_sqrt_top_Pipeline_VITIS_LOOP_104_1_fu_58.i1_fu_60_0_bF$buf5\ d_lut_BUFX2
ABUFX2_insert13 [\grp_fxp_sqrt_top_Pipeline_VITIS_LOOP_104_1_fu_58.i1_fu_60\_0_] \grp_fxp_sqrt_top_Pipeline_VITIS_LOOP_104_1_fu_58.i1_fu_60_0_bF$buf6\ d_lut_BUFX2
ABUFX2_insert12 [\grp_fxp_sqrt_top_Pipeline_VITIS_LOOP_104_1_fu_58.i1_fu_60\_0_] \grp_fxp_sqrt_top_Pipeline_VITIS_LOOP_104_1_fu_58.i1_fu_60_0_bF$buf7\ d_lut_BUFX2
ABUFX2_insert11 [_1022_] _1022__bF$buf0 d_lut_BUFX2
ABUFX2_insert10 [_1022_] _1022__bF$buf1 d_lut_BUFX2
ABUFX2_insert9 [_1022_] _1022__bF$buf2 d_lut_BUFX2
ABUFX2_insert8 [_1022_] _1022__bF$buf3 d_lut_BUFX2
ABUFX2_insert7 [_1022_] _1022__bF$buf4 d_lut_BUFX2
ABUFX2_insert6 [_1022_] _1022__bF$buf5 d_lut_BUFX2
ABUFX2_insert5 [_1022_] _1022__bF$buf6 d_lut_BUFX2
ABUFX2_insert4 [_1063_] _1063__bF$buf0 d_lut_BUFX2
ABUFX2_insert3 [_1063_] _1063__bF$buf1 d_lut_BUFX2
ABUFX2_insert2 [_1063_] _1063__bF$buf2 d_lut_BUFX2
ABUFX2_insert1 [_1063_] _1063__bF$buf3 d_lut_BUFX2
ABUFX2_insert0 [_1063_] _1063__bF$buf4 d_lut_BUFX2
A_1780_ [p_v_loc_fu_44_0_] _116_ d_lut_INVX1
A_1781_ [s_5_loc_fu_48_30_] _117_ d_lut_INVX1
A_1782_ [s_5_loc_fu_48_1_ s_5_loc_fu_48_0_] _118_ d_lut_NOR2X1
A_1783_ [s_5_loc_fu_48_3_ s_5_loc_fu_48_2_] _119_ d_lut_NOR2X1
A_1784_ [s_5_loc_fu_48_5_ s_5_loc_fu_48_4_] _120_ d_lut_NOR2X1
A_1785_ [_118_ _119_ _120_] _121_ d_lut_NAND3X1
A_1786_ [s_5_loc_fu_48_11_] _122_ d_lut_INVX1
A_1787_ [s_5_loc_fu_48_10_] _123_ d_lut_INVX1
A_1788_ [s_5_loc_fu_48_13_ s_5_loc_fu_48_12_] _124_ d_lut_NOR2X1
A_1789_ [_122_ _123_ _124_] _125_ d_lut_NAND3X1
A_1790_ [s_5_loc_fu_48_9_] _126_ d_lut_INVX1
A_1791_ [s_5_loc_fu_48_8_] _127_ d_lut_INVX1
A_1792_ [s_5_loc_fu_48_7_ s_5_loc_fu_48_6_] _128_ d_lut_NOR2X1
A_1793_ [_126_ _127_ _128_] _129_ d_lut_NAND3X1
A_1794_ [_125_ _129_ _121_] _130_ d_lut_NOR3X1
A_1795_ [s_5_loc_fu_48_19_] _131_ d_lut_INVX1
A_1796_ [s_5_loc_fu_48_18_] _132_ d_lut_INVX1
A_1797_ [s_5_loc_fu_48_21_ s_5_loc_fu_48_20_] _133_ d_lut_NOR2X1
A_1798_ [_131_ _132_ _133_] _134_ d_lut_NAND3X1
A_1799_ [s_5_loc_fu_48_17_] _135_ d_lut_INVX1
A_1800_ [s_5_loc_fu_48_16_] _136_ d_lut_INVX1
A_1801_ [s_5_loc_fu_48_15_ s_5_loc_fu_48_14_] _137_ d_lut_NOR2X1
A_1802_ [_135_ _136_ _137_] _138_ d_lut_NAND3X1
A_1803_ [_134_ _138_] _139_ d_lut_NOR2X1
A_1804_ [s_5_loc_fu_48_27_] _140_ d_lut_INVX1
A_1805_ [s_5_loc_fu_48_26_] _141_ d_lut_INVX1
A_1806_ [s_5_loc_fu_48_29_ s_5_loc_fu_48_28_] _142_ d_lut_NOR2X1
A_1807_ [_140_ _141_ _142_] _143_ d_lut_NAND3X1
A_1808_ [s_5_loc_fu_48_23_] _144_ d_lut_INVX1
A_1809_ [s_5_loc_fu_48_22_] _145_ d_lut_INVX1
A_1810_ [s_5_loc_fu_48_25_ s_5_loc_fu_48_24_] _146_ d_lut_NOR2X1
A_1811_ [_144_ _145_ _146_] _147_ d_lut_NAND3X1
A_1812_ [_143_ _147_] _148_ d_lut_NOR2X1
A_1813_ [_139_ _148_ _130_] _149_ d_lut_NAND3X1
A_1814_ [_117_ _149_] _150_ d_lut_NAND2X1
A_1815_ [_150_] _151_ d_lut_INVX8
A_1816_ [q_1_loc_fu_40_0_ q_1_loc_fu_40_1_] _152_ d_lut_NAND2X1
A_1817_ [q_1_loc_fu_40_0_] _153_ d_lut_INVX1
A_1818_ [q_1_loc_fu_40_1_] _154_ d_lut_INVX1
A_1819_ [_153_ _154_] _155_ d_lut_NAND2X1
A_1820_ [_152_ _155_ _151__bF$buf6] _156_ d_lut_NAND3X1
A_1821_ [_116_ _151__bF$buf5 _156_] _1779__0_ d_lut_OAI21X1
A_1822_ [p_v_loc_fu_44_1_] _157_ d_lut_INVX1
A_1823_ [q_1_loc_fu_40_2_] _158_ d_lut_INVX1
A_1824_ [q_1_loc_fu_40_0_ q_1_loc_fu_40_1_ _158_] _159_ d_lut_AOI21X1
A_1825_ [q_1_loc_fu_40_2_ _152_] _160_ d_lut_NOR2X1
A_1826_ [_159_ _160_ _151__bF$buf4] _161_ d_lut_OAI21X1
A_1827_ [_157_ _151__bF$buf3 _161_] _1779__1_ d_lut_OAI21X1
A_1828_ [p_v_loc_fu_44_2_] _162_ d_lut_INVX1
A_1829_ [q_1_loc_fu_40_2_ q_1_loc_fu_40_3_] _163_ d_lut_NAND2X1
A_1830_ [_152_ _163_] _164_ d_lut_NOR2X1
A_1831_ [_164_] _165_ d_lut_INVX2
A_1832_ [q_1_loc_fu_40_3_] _166_ d_lut_INVX1
A_1833_ [_158_ _152_ _166_] _167_ d_lut_OAI21X1
A_1834_ [_165_ _167_ _151__bF$buf2] _168_ d_lut_NAND3X1
A_1835_ [_162_ _151__bF$buf1 _168_] _1779__2_ d_lut_OAI21X1
A_1836_ [p_v_loc_fu_44_3_] _169_ d_lut_INVX1
A_1837_ [q_1_loc_fu_40_4_] _170_ d_lut_INVX1
A_1838_ [_170_ _164_] _171_ d_lut_NOR2X1
A_1839_ [q_1_loc_fu_40_4_ _165_] _172_ d_lut_NOR2X1
A_1840_ [_171_ _172_ _151__bF$buf0] _173_ d_lut_OAI21X1
A_1841_ [_169_ _151__bF$buf6 _173_] _1779__3_ d_lut_OAI21X1
A_1842_ [p_v_loc_fu_44_4_] _174_ d_lut_INVX1
A_1843_ [q_1_loc_fu_40_4_ q_1_loc_fu_40_5_] _175_ d_lut_NAND2X1
A_1844_ [_175_ _165_] _176_ d_lut_NOR2X1
A_1845_ [_176_] _177_ d_lut_INVX1
A_1846_ [q_1_loc_fu_40_5_] _178_ d_lut_INVX1
A_1847_ [_170_ _165_ _178_] _179_ d_lut_OAI21X1
A_1848_ [_177_ _179_ _151__bF$buf5] _180_ d_lut_NAND3X1
A_1849_ [_174_ _151__bF$buf4 _180_] _1779__4_ d_lut_OAI21X1
A_1850_ [p_v_loc_fu_44_5_] _181_ d_lut_INVX1
A_1851_ [q_1_loc_fu_40_6_ _176_] _182_ d_lut_NAND2X1
A_1852_ [q_1_loc_fu_40_6_] _183_ d_lut_INVX1
A_1853_ [_175_ _165_ _183_] _184_ d_lut_OAI21X1
A_1854_ [_182_ _184_ _151__bF$buf3] _185_ d_lut_NAND3X1
A_1855_ [_181_ _151__bF$buf2 _185_] _1779__5_ d_lut_OAI21X1
A_1856_ [p_v_loc_fu_44_6_] _186_ d_lut_INVX1
A_1857_ [q_1_loc_fu_40_7_] _187_ d_lut_INVX1
A_1858_ [_176_ q_1_loc_fu_40_6_ _187_] _188_ d_lut_AOI21X1
A_1859_ [q_1_loc_fu_40_7_ _182_] _189_ d_lut_NOR2X1
A_1860_ [_188_ _189_ _151__bF$buf1] _190_ d_lut_OAI21X1
A_1861_ [_186_ _151__bF$buf0 _190_] _1779__6_ d_lut_OAI21X1
A_1862_ [p_v_loc_fu_44_7_] _191_ d_lut_INVX1
A_1863_ [q_1_loc_fu_40_8_] _192_ d_lut_INVX1
A_1864_ [q_1_loc_fu_40_6_ q_1_loc_fu_40_7_] _193_ d_lut_NAND2X1
A_1865_ [_175_ _193_] _194_ d_lut_NOR2X1
A_1866_ [_164_ _194_] _195_ d_lut_AND2X2
A_1867_ [_192_ _195_] _196_ d_lut_NOR2X1
A_1868_ [_164_ _194_] _197_ d_lut_NAND2X1
A_1869_ [q_1_loc_fu_40_8_ _197_] _198_ d_lut_NOR2X1
A_1870_ [_196_ _198_ _151__bF$buf6] _199_ d_lut_OAI21X1
A_1871_ [_191_ _151__bF$buf5 _199_] _1779__7_ d_lut_OAI21X1
A_1872_ [p_v_loc_fu_44_8_] _200_ d_lut_INVX1
A_1873_ [q_1_loc_fu_40_8_ q_1_loc_fu_40_9_] _201_ d_lut_NAND2X1
A_1874_ [_201_] _202_ d_lut_INVX1
A_1875_ [_202_ _195_] _203_ d_lut_NAND2X1
A_1876_ [q_1_loc_fu_40_9_] _204_ d_lut_INVX1
A_1877_ [_192_ _197_ _204_] _205_ d_lut_OAI21X1
A_1878_ [_203_ _205_ _151__bF$buf4] _206_ d_lut_NAND3X1
A_1879_ [_200_ _151__bF$buf3 _206_] _1779__8_ d_lut_OAI21X1
A_1880_ [p_v_loc_fu_44_9_] _207_ d_lut_INVX1
A_1881_ [q_1_loc_fu_40_10_] _208_ d_lut_INVX1
A_1882_ [_195_ _202_ _208_] _209_ d_lut_AOI21X1
A_1883_ [q_1_loc_fu_40_10_ _203_] _210_ d_lut_NOR2X1
A_1884_ [_209_ _210_ _151__bF$buf2] _211_ d_lut_OAI21X1
A_1885_ [_207_ _151__bF$buf1 _211_] _1779__9_ d_lut_OAI21X1
A_1886_ [_208_ _203_ q_1_loc_fu_40_11_] _212_ d_lut_OAI21X1
A_1887_ [q_1_loc_fu_40_11_] _213_ d_lut_INVX1
A_1888_ [_208_ _203_] _214_ d_lut_NOR2X1
A_1889_ [_213_ _214_] _215_ d_lut_NAND2X1
A_1890_ [_215_ _212_] _216_ d_lut_AND2X2
A_1891_ [p_v_loc_fu_44_10_ _150_] _217_ d_lut_NAND2X1
A_1892_ [_150_ _216_ _217_] _1779__10_ d_lut_OAI21X1
A_1893_ [p_v_loc_fu_44_11_] _218_ d_lut_INVX1
A_1894_ [q_1_loc_fu_40_12_] _219_ d_lut_INVX1
A_1895_ [q_1_loc_fu_40_10_ q_1_loc_fu_40_11_] _220_ d_lut_NAND2X1
A_1896_ [_201_ _220_] _221_ d_lut_NOR2X1
A_1897_ [_221_ _195_] _222_ d_lut_NAND2X1
A_1898_ [_219_ _222_] _223_ d_lut_NAND2X1
A_1899_ [_222_ _219_] _224_ d_lut_OR2X2
A_1900_ [_223_ _224_ _151__bF$buf0] _225_ d_lut_NAND3X1
A_1901_ [_218_ _151__bF$buf6 _225_] _1779__11_ d_lut_OAI21X1
A_1902_ [p_v_loc_fu_44_12_] _226_ d_lut_INVX1
A_1903_ [q_1_loc_fu_40_13_] _227_ d_lut_INVX1
A_1904_ [_219_ _222_ _227_] _228_ d_lut_OAI21X1
A_1905_ [_228_] _229_ d_lut_INVX1
A_1906_ [q_1_loc_fu_40_12_ q_1_loc_fu_40_13_] _230_ d_lut_NAND2X1
A_1907_ [_222_ _230_ _151__bF$buf5] _231_ d_lut_OAI21X1
A_1908_ [_226_ _151__bF$buf4 _229_ _231_] _1779__12_ d_lut_OAI22X1
A_1909_ [p_v_loc_fu_44_13_] _232_ d_lut_INVX1
A_1910_ [q_1_loc_fu_40_14_] _233_ d_lut_INVX1
A_1911_ [_230_ _222_ _233_] _234_ d_lut_OAI21X1
A_1912_ [_230_] _235_ d_lut_INVX1
A_1913_ [_221_ _235_ _195_] _236_ d_lut_NAND3X1
A_1914_ [_233_ _236_] _237_ d_lut_NOR2X1
A_1915_ [_237_] _238_ d_lut_INVX1
A_1916_ [_234_ _238_ _151__bF$buf3] _239_ d_lut_NAND3X1
A_1917_ [_232_ _151__bF$buf2 _239_] _1779__13_ d_lut_OAI21X1
A_1918_ [q_1_loc_fu_40_15_] _240_ d_lut_INVX1
A_1919_ [_240_ _237_] _241_ d_lut_NOR2X1
A_1920_ [_237_ _240_] _242_ d_lut_AND2X2
A_1921_ [_241_ _242_ _151__bF$buf1] _243_ d_lut_OAI21X1
A_1922_ [p_v_loc_fu_44_14_ _150_] _244_ d_lut_NAND2X1
A_1923_ [_244_ _243_] _1779__14_ d_lut_NAND2X1
A_1924_ [p_v_loc_fu_44_15_] _245_ d_lut_INVX1
A_1925_ [q_1_loc_fu_40_16_] _246_ d_lut_INVX1
A_1926_ [q_1_loc_fu_40_14_ q_1_loc_fu_40_15_] _247_ d_lut_NAND2X1
A_1927_ [_230_ _247_] _248_ d_lut_NOR2X1
A_1928_ [_221_ _248_] _249_ d_lut_NAND2X1
A_1929_ [_197_ _249_] _250_ d_lut_NOR2X1
A_1930_ [_246_ _250_] _251_ d_lut_NOR2X1
A_1931_ [_221_ _248_] _252_ d_lut_AND2X2
A_1932_ [_195_ _252_] _253_ d_lut_NAND2X1
A_1933_ [q_1_loc_fu_40_16_ _253_] _254_ d_lut_NOR2X1
A_1934_ [_251_ _254_ _151__bF$buf0] _255_ d_lut_OAI21X1
A_1935_ [_245_ _151__bF$buf6 _255_] _1779__15_ d_lut_OAI21X1
A_1936_ [p_v_loc_fu_44_16_] _256_ d_lut_INVX1
A_1937_ [_250_ q_1_loc_fu_40_16_ q_1_loc_fu_40_17_] _257_ d_lut_AOI21X1
A_1938_ [q_1_loc_fu_40_16_ q_1_loc_fu_40_17_] _258_ d_lut_NAND2X1
A_1939_ [_253_ _258_ _151__bF$buf5] _259_ d_lut_OAI21X1
A_1940_ [_256_ _151__bF$buf4 _257_ _259_] _1779__16_ d_lut_OAI22X1
A_1941_ [p_v_loc_fu_44_17_] _260_ d_lut_INVX1
A_1942_ [q_1_loc_fu_40_18_] _261_ d_lut_INVX1
A_1943_ [_258_ _253_ _261_] _262_ d_lut_OAI21X1
A_1944_ [_258_ _253_] _263_ d_lut_NOR2X1
A_1945_ [q_1_loc_fu_40_18_ _263_] _264_ d_lut_NAND2X1
A_1946_ [_262_ _264_ _151__bF$buf3] _265_ d_lut_NAND3X1
A_1947_ [_260_ _151__bF$buf2 _265_] _1779__17_ d_lut_OAI21X1
A_1948_ [p_v_loc_fu_44_18_] _266_ d_lut_INVX1
A_1949_ [q_1_loc_fu_40_19_] _267_ d_lut_INVX1
A_1950_ [_263_ q_1_loc_fu_40_18_ _267_] _268_ d_lut_AOI21X1
A_1951_ [_258_] _269_ d_lut_INVX1
A_1952_ [_269_ _250_] _270_ d_lut_NAND2X1
A_1953_ [_261_ q_1_loc_fu_40_19_ _270_] _271_ d_lut_NOR3X1
A_1954_ [_268_ _271_ _151__bF$buf1] _272_ d_lut_OAI21X1
A_1955_ [_266_ _151__bF$buf0 _272_] _1779__18_ d_lut_OAI21X1
A_1956_ [p_v_loc_fu_44_19_] _273_ d_lut_INVX1
A_1957_ [q_1_loc_fu_40_18_ q_1_loc_fu_40_19_] _274_ d_lut_NAND2X1
A_1958_ [_258_ _274_] _275_ d_lut_NOR2X1
A_1959_ [_275_ _195_ _252_] _276_ d_lut_NAND3X1
A_1960_ [_276_] _277_ d_lut_INVX1
A_1961_ [q_1_loc_fu_40_20_ _277_] _278_ d_lut_NAND2X1
A_1962_ [q_1_loc_fu_40_20_] _279_ d_lut_INVX1
A_1963_ [_279_ _276_] _280_ d_lut_NAND2X1
A_1964_ [_280_ _151__bF$buf6 _278_] _281_ d_lut_NAND3X1
A_1965_ [_273_ _151__bF$buf5 _281_] _1779__19_ d_lut_OAI21X1
A_1966_ [p_v_loc_fu_44_20_] _282_ d_lut_INVX1
A_1967_ [q_1_loc_fu_40_21_] _283_ d_lut_INVX1
A_1968_ [_277_ q_1_loc_fu_40_20_ _283_] _284_ d_lut_AOI21X1
A_1969_ [_279_ q_1_loc_fu_40_21_ _276_] _285_ d_lut_NOR3X1
A_1970_ [_285_ _284_ _151__bF$buf4] _286_ d_lut_OAI21X1
A_1971_ [_282_ _151__bF$buf3 _286_] _1779__20_ d_lut_OAI21X1
A_1972_ [q_1_loc_fu_40_20_ q_1_loc_fu_40_21_] _287_ d_lut_NAND2X1
A_1973_ [_287_ _276_] _288_ d_lut_NOR2X1
A_1974_ [q_1_loc_fu_40_22_ _288_] _289_ d_lut_NAND2X1
A_1975_ [q_1_loc_fu_40_22_] _290_ d_lut_INVX1
A_1976_ [_287_ _276_ _290_] _291_ d_lut_OAI21X1
A_1977_ [_291_ _289_] _292_ d_lut_NAND2X1
A_1978_ [p_v_loc_fu_44_21_ _150_] _293_ d_lut_NAND2X1
A_1979_ [_150_ _292_ _293_] _1779__21_ d_lut_OAI21X1
A_1980_ [q_1_loc_fu_40_23_] _294_ d_lut_INVX1
A_1981_ [_288_ q_1_loc_fu_40_22_ _294_] _295_ d_lut_AOI21X1
A_1982_ [_287_] _296_ d_lut_INVX1
A_1983_ [_275_ _296_ _250_] _297_ d_lut_NAND3X1
A_1984_ [_290_ q_1_loc_fu_40_23_ _297_] _298_ d_lut_NOR3X1
A_1985_ [_298_ _295_ _151__bF$buf2] _299_ d_lut_OAI21X1
A_1986_ [p_v_loc_fu_44_22_ _150_] _300_ d_lut_NAND2X1
A_1987_ [_300_ _299_] _1779__22_ d_lut_NAND2X1
A_1988_ [p_v_loc_fu_44_23_] _301_ d_lut_INVX1
A_1989_ [q_1_loc_fu_40_22_ q_1_loc_fu_40_23_] _302_ d_lut_NAND2X1
A_1990_ [_287_ _302_] _303_ d_lut_NOR2X1
A_1991_ [_275_ _303_] _304_ d_lut_NAND2X1
A_1992_ [_304_ _253_] _305_ d_lut_NOR2X1
A_1993_ [q_1_loc_fu_40_24_ _305_] _306_ d_lut_NAND2X1
A_1994_ [q_1_loc_fu_40_24_] _307_ d_lut_INVX1
A_1995_ [_304_ _253_ _307_] _308_ d_lut_OAI21X1
A_1996_ [_308_ _306_ _151__bF$buf1] _309_ d_lut_NAND3X1
A_1997_ [_301_ _151__bF$buf0 _309_] _1779__23_ d_lut_OAI21X1
A_1998_ [p_v_loc_fu_44_24_] _310_ d_lut_INVX1
A_1999_ [q_1_loc_fu_40_25_] _311_ d_lut_INVX1
A_2000_ [_305_ q_1_loc_fu_40_24_ _311_] _312_ d_lut_AOI21X1
A_2001_ [_304_] _313_ d_lut_INVX1
A_2002_ [_313_ _250_] _314_ d_lut_NAND2X1
A_2003_ [_307_ q_1_loc_fu_40_25_ _314_] _315_ d_lut_NOR3X1
A_2004_ [_312_ _315_ _151__bF$buf6] _316_ d_lut_OAI21X1
A_2005_ [_310_ _151__bF$buf5 _316_] _1779__24_ d_lut_OAI21X1
A_2006_ [p_v_loc_fu_44_25_] _317_ d_lut_INVX1
A_2007_ [q_1_loc_fu_40_24_ q_1_loc_fu_40_25_] _318_ d_lut_NAND2X1
A_2008_ [_318_] _319_ d_lut_INVX1
A_2009_ [q_1_loc_fu_40_26_ _319_ _305_] _320_ d_lut_NAND3X1
A_2010_ [q_1_loc_fu_40_26_] _321_ d_lut_INVX1
A_2011_ [_318_ _314_ _321_] _322_ d_lut_OAI21X1
A_2012_ [_322_ _151__bF$buf4 _320_] _323_ d_lut_NAND3X1
A_2013_ [_317_ _151__bF$buf3 _323_] _1779__25_ d_lut_OAI21X1
A_2014_ [p_v_loc_fu_44_26_] _324_ d_lut_INVX1
A_2015_ [_318_ _314_] _325_ d_lut_NOR2X1
A_2016_ [_325_ q_1_loc_fu_40_26_ q_1_loc_fu_40_27_] _326_ d_lut_AOI21X1
A_2017_ [q_1_loc_fu_40_27_] _327_ d_lut_INVX1
A_2018_ [_327_ _320_ _151__bF$buf2] _328_ d_lut_OAI21X1
A_2019_ [_324_ _151__bF$buf1 _326_ _328_] _1779__26_ d_lut_OAI22X1
A_2020_ [p_v_loc_fu_44_27_] _329_ d_lut_INVX1
A_2021_ [q_1_loc_fu_40_28_] _330_ d_lut_INVX1
A_2022_ [q_1_loc_fu_40_26_ q_1_loc_fu_40_27_] _331_ d_lut_NAND2X1
A_2023_ [_318_ _331_] _332_ d_lut_NOR2X1
A_2024_ [_305_ _332_ _330_] _333_ d_lut_AOI21X1
A_2025_ [_332_] _334_ d_lut_INVX1
A_2026_ [q_1_loc_fu_40_28_ _334_ _314_] _335_ d_lut_NOR3X1
A_2027_ [_333_ _335_ _151__bF$buf0] _336_ d_lut_OAI21X1
A_2028_ [_329_ _151__bF$buf6 _336_] _1779__27_ d_lut_OAI21X1
A_2029_ [ap_CS_fsm_state1_bF$buf6] _337_ d_lut_INVX1
A_2030_ [ap_start _337_] _1778_ d_lut_NOR2X1
A_2031_ [s_5_loc_fu_48_0_] _338_ d_lut_INVX1
A_2032_ [ap_CS_fsm_state2 \grp_fxp_sqrt_top_Pipeline_VITIS_LOOP_104_1_fu_58.ap_condition_exit_pp0_iter1_stage0\] _339_ d_lut_AND2X2
A_2033_ [\grp_fxp_sqrt_top_Pipeline_VITIS_LOOP_104_1_fu_58.s_1_fu_177_p2\_0_ _339__bF$buf6] _340_ d_lut_NAND2X1
A_2034_ [_338_ _339__bF$buf5 _340_] _3_ d_lut_OAI21X1
A_2035_ [s_5_loc_fu_48_1_] _341_ d_lut_INVX1
A_2036_ [\grp_fxp_sqrt_top_Pipeline_VITIS_LOOP_104_1_fu_58.s_5_out\_1_ _339__bF$buf4] _342_ d_lut_NAND2X1
A_2037_ [_341_ _339__bF$buf3 _342_] _4_ d_lut_OAI21X1
A_2038_ [s_5_loc_fu_48_2_] _343_ d_lut_INVX1
A_2039_ [\grp_fxp_sqrt_top_Pipeline_VITIS_LOOP_104_1_fu_58.s_5_out\_2_ _339__bF$buf2] _344_ d_lut_NAND2X1
A_2040_ [_343_ _339__bF$buf1 _344_] _5_ d_lut_OAI21X1
A_2041_ [s_5_loc_fu_48_3_] _345_ d_lut_INVX1
A_2042_ [\grp_fxp_sqrt_top_Pipeline_VITIS_LOOP_104_1_fu_58.s_5_out\_3_ _339__bF$buf0] _346_ d_lut_NAND2X1
A_2043_ [_345_ _339__bF$buf6 _346_] _6_ d_lut_OAI21X1
A_2044_ [s_5_loc_fu_48_4_] _347_ d_lut_INVX1
A_2045_ [\grp_fxp_sqrt_top_Pipeline_VITIS_LOOP_104_1_fu_58.s_5_out\_4_ _339__bF$buf5] _348_ d_lut_NAND2X1
A_2046_ [_347_ _339__bF$buf4 _348_] _7_ d_lut_OAI21X1
A_2047_ [s_5_loc_fu_48_5_] _349_ d_lut_INVX1
A_2048_ [\grp_fxp_sqrt_top_Pipeline_VITIS_LOOP_104_1_fu_58.s_5_out\_5_ _339__bF$buf3] _350_ d_lut_NAND2X1
A_2049_ [_349_ _339__bF$buf2 _350_] _8_ d_lut_OAI21X1
A_2050_ [s_5_loc_fu_48_6_] _351_ d_lut_INVX1
A_2051_ [\grp_fxp_sqrt_top_Pipeline_VITIS_LOOP_104_1_fu_58.s_5_out\_6_ _339__bF$buf1] _352_ d_lut_NAND2X1
A_2052_ [_351_ _339__bF$buf0 _352_] _9_ d_lut_OAI21X1
A_2053_ [s_5_loc_fu_48_7_] _353_ d_lut_INVX1
A_2054_ [\grp_fxp_sqrt_top_Pipeline_VITIS_LOOP_104_1_fu_58.s_5_out\_7_ _339__bF$buf6] _354_ d_lut_NAND2X1
A_2055_ [_353_ _339__bF$buf5 _354_] _10_ d_lut_OAI21X1
A_2056_ [\grp_fxp_sqrt_top_Pipeline_VITIS_LOOP_104_1_fu_58.s_5_out\_8_ _339__bF$buf4] _355_ d_lut_NAND2X1
A_2057_ [_127_ _339__bF$buf3 _355_] _11_ d_lut_OAI21X1
A_2058_ [\grp_fxp_sqrt_top_Pipeline_VITIS_LOOP_104_1_fu_58.s_5_out\_9_ _339__bF$buf2] _356_ d_lut_NAND2X1
A_2059_ [_126_ _339__bF$buf1 _356_] _12_ d_lut_OAI21X1
A_2060_ [\grp_fxp_sqrt_top_Pipeline_VITIS_LOOP_104_1_fu_58.s_5_out\_10_ _339__bF$buf0] _357_ d_lut_NAND2X1
A_2061_ [_123_ _339__bF$buf6 _357_] _13_ d_lut_OAI21X1
A_2062_ [\grp_fxp_sqrt_top_Pipeline_VITIS_LOOP_104_1_fu_58.s_5_out\_11_ _339__bF$buf5] _358_ d_lut_NAND2X1
A_2063_ [_122_ _339__bF$buf4 _358_] _14_ d_lut_OAI21X1
A_2064_ [s_5_loc_fu_48_12_] _359_ d_lut_INVX1
A_2065_ [\grp_fxp_sqrt_top_Pipeline_VITIS_LOOP_104_1_fu_58.s_5_out\_12_ _339__bF$buf3] _360_ d_lut_NAND2X1
A_2066_ [_359_ _339__bF$buf2 _360_] _15_ d_lut_OAI21X1
A_2067_ [s_5_loc_fu_48_13_] _361_ d_lut_INVX1
A_2068_ [\grp_fxp_sqrt_top_Pipeline_VITIS_LOOP_104_1_fu_58.s_5_out\_13_ _339__bF$buf1] _362_ d_lut_NAND2X1
A_2069_ [_361_ _339__bF$buf0 _362_] _16_ d_lut_OAI21X1
A_2070_ [s_5_loc_fu_48_14_] _363_ d_lut_INVX1
A_2071_ [\grp_fxp_sqrt_top_Pipeline_VITIS_LOOP_104_1_fu_58.s_5_out\_14_ _339__bF$buf6] _364_ d_lut_NAND2X1
A_2072_ [_363_ _339__bF$buf5 _364_] _17_ d_lut_OAI21X1
A_2073_ [s_5_loc_fu_48_15_] _365_ d_lut_INVX1
A_2074_ [\grp_fxp_sqrt_top_Pipeline_VITIS_LOOP_104_1_fu_58.s_5_out\_15_ _339__bF$buf4] _366_ d_lut_NAND2X1
A_2075_ [_365_ _339__bF$buf3 _366_] _18_ d_lut_OAI21X1
A_2076_ [\grp_fxp_sqrt_top_Pipeline_VITIS_LOOP_104_1_fu_58.s_5_out\_16_ _339__bF$buf2] _367_ d_lut_NAND2X1
A_2077_ [_136_ _339__bF$buf1 _367_] _19_ d_lut_OAI21X1
A_2078_ [\grp_fxp_sqrt_top_Pipeline_VITIS_LOOP_104_1_fu_58.s_5_out\_17_ _339__bF$buf0] _368_ d_lut_NAND2X1
A_2079_ [_135_ _339__bF$buf6 _368_] _20_ d_lut_OAI21X1
A_2080_ [\grp_fxp_sqrt_top_Pipeline_VITIS_LOOP_104_1_fu_58.s_5_out\_18_ _339__bF$buf5] _369_ d_lut_NAND2X1
A_2081_ [_132_ _339__bF$buf4 _369_] _21_ d_lut_OAI21X1
A_2082_ [\grp_fxp_sqrt_top_Pipeline_VITIS_LOOP_104_1_fu_58.s_5_out\_19_ _339__bF$buf3] _370_ d_lut_NAND2X1
A_2083_ [_131_ _339__bF$buf2 _370_] _22_ d_lut_OAI21X1
A_2084_ [s_5_loc_fu_48_20_] _371_ d_lut_INVX1
A_2085_ [\grp_fxp_sqrt_top_Pipeline_VITIS_LOOP_104_1_fu_58.s_5_out\_20_ _339__bF$buf1] _372_ d_lut_NAND2X1
A_2086_ [_371_ _339__bF$buf0 _372_] _23_ d_lut_OAI21X1
A_2087_ [s_5_loc_fu_48_21_] _373_ d_lut_INVX1
A_2088_ [\grp_fxp_sqrt_top_Pipeline_VITIS_LOOP_104_1_fu_58.s_5_out\_21_ _339__bF$buf6] _374_ d_lut_NAND2X1
A_2089_ [_373_ _339__bF$buf5 _374_] _24_ d_lut_OAI21X1
A_2090_ [\grp_fxp_sqrt_top_Pipeline_VITIS_LOOP_104_1_fu_58.s_5_out\_22_ _339__bF$buf4] _375_ d_lut_NAND2X1
A_2091_ [_145_ _339__bF$buf3 _375_] _25_ d_lut_OAI21X1
A_2092_ [\grp_fxp_sqrt_top_Pipeline_VITIS_LOOP_104_1_fu_58.s_5_out\_23_ _339__bF$buf2] _376_ d_lut_NAND2X1
A_2093_ [_144_ _339__bF$buf1 _376_] _26_ d_lut_OAI21X1
A_2094_ [s_5_loc_fu_48_24_] _377_ d_lut_INVX1
A_2095_ [\grp_fxp_sqrt_top_Pipeline_VITIS_LOOP_104_1_fu_58.s_5_out\_24_ _339__bF$buf0] _378_ d_lut_NAND2X1
A_2096_ [_377_ _339__bF$buf6 _378_] _27_ d_lut_OAI21X1
A_2097_ [s_5_loc_fu_48_25_] _379_ d_lut_INVX1
A_2098_ [\grp_fxp_sqrt_top_Pipeline_VITIS_LOOP_104_1_fu_58.s_5_out\_25_ _339__bF$buf5] _380_ d_lut_NAND2X1
A_2099_ [_379_ _339__bF$buf4 _380_] _28_ d_lut_OAI21X1
A_2100_ [\grp_fxp_sqrt_top_Pipeline_VITIS_LOOP_104_1_fu_58.s_5_out\_26_ _339__bF$buf3] _381_ d_lut_NAND2X1
A_2101_ [_141_ _339__bF$buf2 _381_] _29_ d_lut_OAI21X1
A_2102_ [\grp_fxp_sqrt_top_Pipeline_VITIS_LOOP_104_1_fu_58.s_5_out\_27_ _339__bF$buf1] _382_ d_lut_NAND2X1
A_2103_ [_140_ _339__bF$buf0 _382_] _30_ d_lut_OAI21X1
A_2104_ [s_5_loc_fu_48_28_] _383_ d_lut_INVX1
A_2105_ [\grp_fxp_sqrt_top_Pipeline_VITIS_LOOP_104_1_fu_58.s_5_out\_28_ _339__bF$buf6] _384_ d_lut_NAND2X1
A_2106_ [_383_ _339__bF$buf5 _384_] _31_ d_lut_OAI21X1