* XSpice netlist created from SPICE and liberty sources by spi2xspice.py
*SPICE netlist created from verilog structural netlist module fir8 by vlog2Spice (qflow)
** Start of included library /usr/local/share/qflow/tech/etri050/etri050_stdcells.sp
* NGSPICE file created from khu_etri050_stdcells.ext - technology: scmos
** End of included library /usr/local/share/qflow/tech/etri050/etri050_stdcells.sp
.subckt fir8 a_vdd a_gnd a_Xin_0_ a_Xin_1_ a_Xin_2_ a_Xin_3_ a_Xin_4_ a_Xin_5_ a_Xin_6_ a_Xin_7_ a_Xout_0_ a_Xout_1_ a_Xout_2_ a_Xout_3_ a_Xout_4_ a_Xout_5_ a_Xout_6_ a_Xout_7_ a_Yin_0_ a_Yin_1_ a_Yin_2_ a_Yin_3_ a_Yin_4_ a_Yin_5_ a_Yin_6_ a_Yin_7_ a_Yin_8_ a_Yin_9_ a_Yin_10_ a_Yin_11_ a_Yin_12_ a_Yin_13_ a_Yin_14_ a_Yin_15_ a_Yout_0_ a_Yout_1_ a_Yout_2_ a_Yout_3_ a_Yout_4_ a_Yout_5_ a_Yout_6_ a_Yout_7_ a_Yout_8_ a_Yout_9_ a_Yout_10_ a_Yout_11_ a_Yout_12_ a_Yout_13_ a_Yout_14_ a_Yout_15_ a_clk
ACLKBUF1_insert96 [clk] clk_hier0_bF$buf0 d_lut_CLKBUF1
ACLKBUF1_insert95 [clk] clk_hier0_bF$buf1 d_lut_CLKBUF1
ACLKBUF1_insert94 [clk] clk_hier0_bF$buf2 d_lut_CLKBUF1
ACLKBUF1_insert93 [clk] clk_hier0_bF$buf3 d_lut_CLKBUF1
ACLKBUF1_insert92 [clk] clk_hier0_bF$buf4 d_lut_CLKBUF1
ACLKBUF1_insert91 [clk] clk_hier0_bF$buf5 d_lut_CLKBUF1
ACLKBUF1_insert90 [clk] clk_hier0_bF$buf6 d_lut_CLKBUF1
ABUFX2_insert89 [\X_7_\_5_] \X_7__5_bF$buf0\ d_lut_BUFX2
ABUFX2_insert88 [\X_7_\_5_] \X_7__5_bF$buf1\ d_lut_BUFX2
ABUFX2_insert87 [\X_7_\_5_] \X_7__5_bF$buf2\ d_lut_BUFX2
ABUFX2_insert86 [\X_7_\_5_] \X_7__5_bF$buf3\ d_lut_BUFX2
ABUFX2_insert85 [Xin_5_] Xin_5_bF$buf0 d_lut_BUFX2
ABUFX2_insert84 [Xin_5_] Xin_5_bF$buf1 d_lut_BUFX2
ABUFX2_insert83 [Xin_5_] Xin_5_bF$buf2 d_lut_BUFX2
ABUFX2_insert82 [Xin_5_] Xin_5_bF$buf3 d_lut_BUFX2
ABUFX2_insert81 [\X_6_\_5_] \X_6__5_bF$buf0\ d_lut_BUFX2
ABUFX2_insert80 [\X_6_\_5_] \X_6__5_bF$buf1\ d_lut_BUFX2
ABUFX2_insert79 [\X_6_\_5_] \X_6__5_bF$buf2\ d_lut_BUFX2
ABUFX2_insert78 [\X_6_\_5_] \X_6__5_bF$buf3\ d_lut_BUFX2
ABUFX2_insert77 [\X_4_\_5_] \X_4__5_bF$buf0\ d_lut_BUFX2
ABUFX2_insert76 [\X_4_\_5_] \X_4__5_bF$buf1\ d_lut_BUFX2
ABUFX2_insert75 [\X_4_\_5_] \X_4__5_bF$buf2\ d_lut_BUFX2
ABUFX2_insert74 [\X_4_\_5_] \X_4__5_bF$buf3\ d_lut_BUFX2
ABUFX2_insert73 [\X_2_\_5_] \X_2__5_bF$buf0\ d_lut_BUFX2
ABUFX2_insert72 [\X_2_\_5_] \X_2__5_bF$buf1\ d_lut_BUFX2
ABUFX2_insert71 [\X_2_\_5_] \X_2__5_bF$buf2\ d_lut_BUFX2
ABUFX2_insert70 [\X_2_\_5_] \X_2__5_bF$buf3\ d_lut_BUFX2
ACLKBUF1_insert69 [clk_hier0_bF$buf6] clk_bF$buf0 d_lut_CLKBUF1
ACLKBUF1_insert68 [clk_hier0_bF$buf5] clk_bF$buf1 d_lut_CLKBUF1
ACLKBUF1_insert67 [clk_hier0_bF$buf4] clk_bF$buf2 d_lut_CLKBUF1
ACLKBUF1_insert66 [clk_hier0_bF$buf3] clk_bF$buf3 d_lut_CLKBUF1
ACLKBUF1_insert65 [clk_hier0_bF$buf2] clk_bF$buf4 d_lut_CLKBUF1
ACLKBUF1_insert64 [clk_hier0_bF$buf1] clk_bF$buf5 d_lut_CLKBUF1
ACLKBUF1_insert63 [clk_hier0_bF$buf0] clk_bF$buf6 d_lut_CLKBUF1
ACLKBUF1_insert62 [clk_hier0_bF$buf6] clk_bF$buf7 d_lut_CLKBUF1
ACLKBUF1_insert61 [clk_hier0_bF$buf5] clk_bF$buf8 d_lut_CLKBUF1
ACLKBUF1_insert60 [clk_hier0_bF$buf4] clk_bF$buf9 d_lut_CLKBUF1
ACLKBUF1_insert59 [clk_hier0_bF$buf3] clk_bF$buf10 d_lut_CLKBUF1
ACLKBUF1_insert58 [clk_hier0_bF$buf2] clk_bF$buf11 d_lut_CLKBUF1
ACLKBUF1_insert57 [clk_hier0_bF$buf1] clk_bF$buf12 d_lut_CLKBUF1
ACLKBUF1_insert56 [clk_hier0_bF$buf0] clk_bF$buf13 d_lut_CLKBUF1
ACLKBUF1_insert55 [clk_hier0_bF$buf6] clk_bF$buf14 d_lut_CLKBUF1
ACLKBUF1_insert54 [clk_hier0_bF$buf5] clk_bF$buf15 d_lut_CLKBUF1
ACLKBUF1_insert53 [clk_hier0_bF$buf4] clk_bF$buf16 d_lut_CLKBUF1
ACLKBUF1_insert52 [clk_hier0_bF$buf3] clk_bF$buf17 d_lut_CLKBUF1
ACLKBUF1_insert51 [clk_hier0_bF$buf2] clk_bF$buf18 d_lut_CLKBUF1
ACLKBUF1_insert50 [clk_hier0_bF$buf1] clk_bF$buf19 d_lut_CLKBUF1
ACLKBUF1_insert49 [clk_hier0_bF$buf0] clk_bF$buf20 d_lut_CLKBUF1
ACLKBUF1_insert48 [clk_hier0_bF$buf6] clk_bF$buf21 d_lut_CLKBUF1
ACLKBUF1_insert47 [clk_hier0_bF$buf5] clk_bF$buf22 d_lut_CLKBUF1
ACLKBUF1_insert46 [clk_hier0_bF$buf4] clk_bF$buf23 d_lut_CLKBUF1
ACLKBUF1_insert45 [clk_hier0_bF$buf3] clk_bF$buf24 d_lut_CLKBUF1
ACLKBUF1_insert44 [clk_hier0_bF$buf2] clk_bF$buf25 d_lut_CLKBUF1
ACLKBUF1_insert43 [clk_hier0_bF$buf1] clk_bF$buf26 d_lut_CLKBUF1
ACLKBUF1_insert42 [clk_hier0_bF$buf0] clk_bF$buf27 d_lut_CLKBUF1
ACLKBUF1_insert41 [clk_hier0_bF$buf6] clk_bF$buf28 d_lut_CLKBUF1
ACLKBUF1_insert40 [clk_hier0_bF$buf5] clk_bF$buf29 d_lut_CLKBUF1
ACLKBUF1_insert39 [clk_hier0_bF$buf4] clk_bF$buf30 d_lut_CLKBUF1
ACLKBUF1_insert38 [clk_hier0_bF$buf3] clk_bF$buf31 d_lut_CLKBUF1
ACLKBUF1_insert37 [clk_hier0_bF$buf2] clk_bF$buf32 d_lut_CLKBUF1
ACLKBUF1_insert36 [clk_hier0_bF$buf1] clk_bF$buf33 d_lut_CLKBUF1
ACLKBUF1_insert35 [clk_hier0_bF$buf0] clk_bF$buf34 d_lut_CLKBUF1
ACLKBUF1_insert34 [clk_hier0_bF$buf6] clk_bF$buf35 d_lut_CLKBUF1
ACLKBUF1_insert33 [clk_hier0_bF$buf5] clk_bF$buf36 d_lut_CLKBUF1
ACLKBUF1_insert32 [clk_hier0_bF$buf4] clk_bF$buf37 d_lut_CLKBUF1
ACLKBUF1_insert31 [clk_hier0_bF$buf3] clk_bF$buf38 d_lut_CLKBUF1
ACLKBUF1_insert30 [clk_hier0_bF$buf2] clk_bF$buf39 d_lut_CLKBUF1
ACLKBUF1_insert29 [clk_hier0_bF$buf1] clk_bF$buf40 d_lut_CLKBUF1
ACLKBUF1_insert28 [clk_hier0_bF$buf0] clk_bF$buf41 d_lut_CLKBUF1
ACLKBUF1_insert27 [clk_hier0_bF$buf6] clk_bF$buf42 d_lut_CLKBUF1
ACLKBUF1_insert26 [clk_hier0_bF$buf5] clk_bF$buf43 d_lut_CLKBUF1
ACLKBUF1_insert25 [clk_hier0_bF$buf4] clk_bF$buf44 d_lut_CLKBUF1
ACLKBUF1_insert24 [clk_hier0_bF$buf3] clk_bF$buf45 d_lut_CLKBUF1
ACLKBUF1_insert23 [clk_hier0_bF$buf2] clk_bF$buf46 d_lut_CLKBUF1
ACLKBUF1_insert22 [clk_hier0_bF$buf1] clk_bF$buf47 d_lut_CLKBUF1
ACLKBUF1_insert21 [clk_hier0_bF$buf0] clk_bF$buf48 d_lut_CLKBUF1
ACLKBUF1_insert20 [clk_hier0_bF$buf6] clk_bF$buf49 d_lut_CLKBUF1
ACLKBUF1_insert19 [clk_hier0_bF$buf5] clk_bF$buf50 d_lut_CLKBUF1
ACLKBUF1_insert18 [clk_hier0_bF$buf4] clk_bF$buf51 d_lut_CLKBUF1
ACLKBUF1_insert17 [clk_hier0_bF$buf3] clk_bF$buf52 d_lut_CLKBUF1
ACLKBUF1_insert16 [clk_hier0_bF$buf2] clk_bF$buf53 d_lut_CLKBUF1
ACLKBUF1_insert15 [clk_hier0_bF$buf1] clk_bF$buf54 d_lut_CLKBUF1
ACLKBUF1_insert14 [clk_hier0_bF$buf0] clk_bF$buf55 d_lut_CLKBUF1
ACLKBUF1_insert13 [clk_hier0_bF$buf6] clk_bF$buf56 d_lut_CLKBUF1
ACLKBUF1_insert12 [clk_hier0_bF$buf5] clk_bF$buf57 d_lut_CLKBUF1
ABUFX2_insert11 [\X_5_\_5_] \X_5__5_bF$buf0\ d_lut_BUFX2
ABUFX2_insert10 [\X_5_\_5_] \X_5__5_bF$buf1\ d_lut_BUFX2
ABUFX2_insert9 [\X_5_\_5_] \X_5__5_bF$buf2\ d_lut_BUFX2
ABUFX2_insert8 [\X_5_\_5_] \X_5__5_bF$buf3\ d_lut_BUFX2
ABUFX2_insert7 [\X_3_\_5_] \X_3__5_bF$buf0\ d_lut_BUFX2
ABUFX2_insert6 [\X_3_\_5_] \X_3__5_bF$buf1\ d_lut_BUFX2
ABUFX2_insert5 [\X_3_\_5_] \X_3__5_bF$buf2\ d_lut_BUFX2
ABUFX2_insert4 [\X_3_\_5_] \X_3__5_bF$buf3\ d_lut_BUFX2
ABUFX2_insert3 [\X_1_\_5_] \X_1__5_bF$buf0\ d_lut_BUFX2
ABUFX2_insert2 [\X_1_\_5_] \X_1__5_bF$buf1\ d_lut_BUFX2
ABUFX2_insert1 [\X_1_\_5_] \X_1__5_bF$buf2\ d_lut_BUFX2
ABUFX2_insert0 [\X_1_\_5_] \X_1__5_bF$buf3\ d_lut_BUFX2
A_10000_ [gnd \X_4_\_3_] _3281_ d_lut_NAND2X1
A_10001_ [gnd \X_4_\_2_ _3281_] _3282_ d_lut_NAND3X1
A_10002_ [_3273_ _3280_ _3282_] _3283_ d_lut_NAND3X1
A_10003_ [_3272_ _3283_ _3279_] _3284_ d_lut_NAND3X1
A_10004_ [_3272_] _3285_ d_lut_INVX1
A_10005_ [_3280_ _3282_ _3273_] _3286_ d_lut_AOI21X1
A_10006_ [vdd \X_4_\_4_ _3276_ _3278_] _3287_ d_lut_AOI22X1
A_10007_ [_3286_ _3287_ _3285_] _3288_ d_lut_OAI21X1
A_10008_ [_3284_ _3270_ _3288_] _3289_ d_lut_NAND3X1
A_10009_ [_3269_ _3265_] _3290_ d_lut_NAND2X1
A_10010_ [_3286_ _3287_ _3272_] _3291_ d_lut_OAI21X1
A_10011_ [_3283_ _3279_ _3285_] _3292_ d_lut_NAND3X1
A_10012_ [_3290_ _3292_ _3291_] _3293_ d_lut_NAND3X1
A_10013_ [_3289_ _3293_ _3257_] _3294_ d_lut_NAND3X1
A_10014_ [_3216_ _3236_ _3250_] _3295_ d_lut_AOI21X1
A_10015_ [_3291_ _3292_ _3290_] _3296_ d_lut_AOI21X1
A_10016_ [_3288_ _3284_ _3270_] _3297_ d_lut_AOI21X1
A_10017_ [_3296_ _3297_ _3295_] _3298_ d_lut_OAI21X1
A_10018_ [_3214_ _3294_ _3298_] _3299_ d_lut_NAND3X1
A_10019_ [_3214_] _3300_ d_lut_INVX1
A_10020_ [_3296_ _3297_ _3257_] _3301_ d_lut_OAI21X1
A_10021_ [_3289_ _3293_ _3295_] _3302_ d_lut_NAND3X1
A_10022_ [_3300_ _3301_ _3302_] _3303_ d_lut_NAND3X1
A_10023_ [_3241_ _3299_ _3303_] _3304_ d_lut_NAND3X1
A_10024_ [_3300_ _3294_ _3298_] _3305_ d_lut_NAND3X1
A_10025_ [_3214_ _3301_ _3302_] _3306_ d_lut_NAND3X1
A_10026_ [_3242_ _3305_ _3306_] _3307_ d_lut_NAND3X1
A_10027_ [_3304_ _3307_ _3256_] _3308_ d_lut_NAND3X1
A_10028_ [_3208_] _3309_ d_lut_INVX1
A_10029_ [_3309_ _3242_ _3245_] _3310_ d_lut_NAND3X1
A_10030_ [_3242_ _3299_ _3303_] _3311_ d_lut_NAND3X1
A_10031_ [_3241_ _3305_ _3306_] _3312_ d_lut_NAND3X1
A_10032_ [_3311_ _3312_ _3310_] _3313_ d_lut_NAND3X1
A_10033_ [_3308_ _3313_ _3255_] _3314_ d_lut_NAND3X1
A_10034_ [_3255_] _3315_ d_lut_INVX1
A_10035_ [_3308_] _3316_ d_lut_INVX1
A_10036_ [_3313_] _3317_ d_lut_INVX1
A_10037_ [_3316_ _3317_ _3315_] _3318_ d_lut_OAI21X1
A_10038_ [_3318_ _3314_] _3984__5_ d_lut_AND2X2
A_10039_ [\X_4_\_0_ gnd] _3319_ d_lut_AND2X2
A_10040_ [gnd \X_4__5_bF$buf3\] _3320_ d_lut_NAND2X1
A_10041_ [_3898_ _3320_ _3265_] _3321_ d_lut_OAI21X1
A_10042_ [_3321_ _3319_] _3322_ d_lut_OR2X2
A_10043_ [_3319_ _3321_] _3323_ d_lut_NAND2X1
A_10044_ [_3323_ _3322_] _3324_ d_lut_NAND2X1
A_10045_ [_3279_ _3283_ _3272_] _3325_ d_lut_AOI21X1
A_10046_ [_3290_ _3325_ _3284_] _3326_ d_lut_OAI21X1
A_10047_ [\X_4_\_1_ vdd] _3327_ d_lut_NAND2X1
A_10048_ [_3327_] _3328_ d_lut_INVX1
A_10049_ [\X_4_\_2_ gnd] _3329_ d_lut_AND2X2
A_10050_ [gnd \X_4_\_6_] _3330_ d_lut_AND2X2
A_10051_ [_3329_ _3330_] _3331_ d_lut_NAND2X1
A_10052_ [\X_4_\_6_] _3332_ d_lut_INVX2
A_10053_ [\X_4_\_2_ gnd] _3333_ d_lut_NAND2X1
A_10054_ [_3966_ _3332_ _3333_] _3334_ d_lut_OAI21X1
A_10055_ [_3334_ _3328_ _3331_] _3335_ d_lut_NAND3X1
A_10056_ [gnd \X_4_\_6_ _3333_] _3336_ d_lut_NAND3X1
A_10057_ [gnd \X_4_\_6_] _3337_ d_lut_NAND2X1
A_10058_ [_3337_ _3329_] _3338_ d_lut_NAND2X1
A_10059_ [_3327_ _3336_ _3338_] _3339_ d_lut_NAND3X1
A_10060_ [_3335_ _3339_] _3340_ d_lut_AND2X2
A_10061_ [gnd \X_4_\_3_] _3341_ d_lut_NAND2X1
A_10062_ [gnd \X_4_\_2_ gnd \X_4_\_3_] _3342_ d_lut_AOI22X1
A_10063_ [_3230_ _3341_ _3273_ _3342_] _3343_ d_lut_OAI22X1
A_10064_ [vdd \X_4__5_bF$buf2\] _3344_ d_lut_NAND2X1
A_10065_ [_3344_] _3345_ d_lut_INVX1
A_10066_ [gnd \X_4_\_4_] _3346_ d_lut_AND2X2
A_10067_ [_3275_ _3346_] _3347_ d_lut_NAND2X1
A_10068_ [gnd \X_4_\_3_ gnd \X_4_\_4_] _3348_ d_lut_AOI22X1
A_10069_ [_3348_] _3349_ d_lut_INVX1
A_10070_ [_3345_ _3349_ _3347_] _3350_ d_lut_NAND3X1
A_10071_ [gnd \X_4_\_4_ _3341_] _3351_ d_lut_NAND3X1
A_10072_ [gnd \X_4_\_4_] _3352_ d_lut_NAND2X1
A_10073_ [gnd \X_4_\_3_ _3352_] _3353_ d_lut_NAND3X1
A_10074_ [_3344_ _3351_ _3353_] _3354_ d_lut_NAND3X1
A_10075_ [_3343_ _3354_ _3350_] _3355_ d_lut_NAND3X1
A_10076_ [_3343_] _3356_ d_lut_INVX1
A_10077_ [_3351_ _3353_ _3344_] _3357_ d_lut_AOI21X1
A_10078_ [vdd \X_4__5_bF$buf1\ _3347_ _3349_] _3358_ d_lut_AOI22X1
A_10079_ [_3357_ _3358_ _3356_] _3359_ d_lut_OAI21X1
A_10080_ [_3355_ _3340_ _3359_] _3360_ d_lut_NAND3X1
A_10081_ [_3339_ _3335_] _3361_ d_lut_NAND2X1
A_10082_ [_3357_ _3358_ _3343_] _3362_ d_lut_OAI21X1
A_10083_ [_3350_ _3354_ _3356_] _3363_ d_lut_NAND3X1
A_10084_ [_3361_ _3363_ _3362_] _3364_ d_lut_NAND3X1
A_10085_ [_3360_ _3326_ _3364_] _3365_ d_lut_NAND3X1
A_10086_ [_3284_] _3366_ d_lut_INVX1
A_10087_ [_3270_ _3288_ _3366_] _3367_ d_lut_AOI21X1
A_10088_ [_3362_ _3363_ _3361_] _3368_ d_lut_AOI21X1
A_10089_ [_3359_ _3355_ _3340_] _3369_ d_lut_AOI21X1
A_10090_ [_3368_ _3369_ _3367_] _3370_ d_lut_OAI21X1
A_10091_ [_3324_ _3365_ _3370_] _3371_ d_lut_NAND3X1
A_10092_ [_3322_ _3323_] _3372_ d_lut_AND2X2
A_10093_ [_3368_ _3369_ _3326_] _3373_ d_lut_OAI21X1
A_10094_ [_3360_ _3364_ _3367_] _3374_ d_lut_NAND3X1
A_10095_ [_3372_ _3373_ _3374_] _3375_ d_lut_NAND3X1
A_10096_ [_3299_ _3294_ _3371_ _3375_] _3376_ d_lut_AOI22X1
A_10097_ [_3289_ _3293_ _3257_] _3377_ d_lut_AOI21X1
A_10098_ [_3300_ _3377_ _3294_] _3378_ d_lut_OAI21X1
A_10099_ [_3372_ _3365_ _3370_] _3379_ d_lut_NAND3X1
A_10100_ [_3324_ _3373_ _3374_] _3380_ d_lut_NAND3X1
A_10101_ [_3380_ _3379_ _3378_] _3381_ d_lut_AOI21X1
A_10102_ [_3381_ _3376_ _3304_] _3382_ d_lut_OAI21X1
A_10103_ [_3306_ _3305_ _3242_] _3383_ d_lut_AOI21X1
A_10104_ [_3378_ _3379_ _3380_] _3384_ d_lut_NAND3X1
A_10105_ [_3294_] _3385_ d_lut_INVX1
A_10106_ [_3214_ _3298_ _3385_] _3386_ d_lut_AOI21X1
A_10107_ [_3374_ _3373_ _3324_] _3387_ d_lut_AOI21X1
A_10108_ [_3370_ _3365_ _3372_] _3388_ d_lut_AOI21X1
A_10109_ [_3387_ _3388_ _3386_] _3389_ d_lut_OAI21X1
A_10110_ [_3383_ _3384_ _3389_] _3390_ d_lut_NAND3X1
A_10111_ [_3390_ _3382_] _3391_ d_lut_NAND2X1
A_10112_ [_3308_ _3314_ _3391_] _3392_ d_lut_AOI21X1
A_10113_ [_3317_ _3315_ _3308_] _3393_ d_lut_OAI21X1
A_10114_ [_3382_ _3390_ _3393_] _3394_ d_lut_AOI21X1
A_10115_ [_3392_ _3394_] _3984__6_ d_lut_NOR2X1
A_10116_ [_3390_] _3395_ d_lut_INVX1
A_10117_ [_3360_ _3364_ _3326_] _3396_ d_lut_AOI21X1
A_10118_ [_3324_ _3396_ _3365_] _3397_ d_lut_OAI21X1
A_10119_ [\X_4_\_0_ gnd] _3398_ d_lut_NAND2X1
A_10120_ [_3398_] _3399_ d_lut_INVX1
A_10121_ [\X_4_\_1_ gnd] _3400_ d_lut_NAND2X1
A_10122_ [_3400_] _3401_ d_lut_INVX1
A_10123_ [_3333_ _3337_] _3402_ d_lut_AND2X2
A_10124_ [_3327_ _3402_ _3331_] _3403_ d_lut_OAI21X1
A_10125_ [_3401_ _3403_] _3404_ d_lut_NAND2X1
A_10126_ [_3331_ _3400_ _3335_] _3405_ d_lut_NAND3X1
A_10127_ [_3399_ _3405_ _3404_] _3406_ d_lut_NAND3X1
A_10128_ [_3335_ _3331_ _3400_] _3407_ d_lut_AOI21X1
A_10129_ [_3401_ _3403_] _3408_ d_lut_NOR2X1
A_10130_ [_3407_ _3408_ _3398_] _3409_ d_lut_OAI21X1
A_10131_ [_3406_ _3409_] _3410_ d_lut_NAND2X1
A_10132_ [_3350_ _3354_ _3343_] _3411_ d_lut_AOI21X1
A_10133_ [_3361_ _3411_ _3355_] _3412_ d_lut_OAI21X1
A_10134_ [\X_4_\_2_ vdd] _3413_ d_lut_NAND2X1
A_10135_ [_3413_] _3414_ d_lut_INVX1
A_10136_ [\X_4_\_3_ gnd] _3415_ d_lut_AND2X2
A_10137_ [gnd \X_4_\_7_] _3416_ d_lut_AND2X2
A_10138_ [_3415_ _3416_] _3417_ d_lut_NAND2X1
A_10139_ [gnd \X_4_\_7_ \X_4_\_3_ gnd] _3418_ d_lut_AOI22X1
A_10140_ [_3418_] _3419_ d_lut_INVX1
A_10141_ [_3414_ _3419_ _3417_] _3420_ d_lut_NAND3X1
A_10142_ [gnd] _3421_ d_lut_INVX1
A_10143_ [_3203_ _3421_ _3416_] _3422_ d_lut_OAI21X1
A_10144_ [\X_4_\_7_] _3423_ d_lut_INVX1
A_10145_ [_3966_ _3423_ _3415_] _3424_ d_lut_OAI21X1
A_10146_ [_3413_ _3422_ _3424_] _3425_ d_lut_NAND3X1
A_10147_ [_3420_ _3425_] _3426_ d_lut_NAND2X1
A_10148_ [_3344_ _3348_ _3347_] _3427_ d_lut_OAI21X1
A_10149_ [vdd \X_4_\_6_] _3428_ d_lut_NAND2X1
A_10150_ [gnd \X_4_\_4_] _3429_ d_lut_NAND2X1
A_10151_ [gnd \X_4__5_bF$buf0\] _3430_ d_lut_AND2X2
A_10152_ [_3429_ _3430_] _3431_ d_lut_NAND2X1
A_10153_ [_3277_ _3262_ _3346_] _3432_ d_lut_OAI21X1
A_10154_ [_3432_ _3431_ _3428_] _3433_ d_lut_AOI21X1
A_10155_ [_3428_] _3434_ d_lut_INVX1
A_10156_ [_3346_ _3430_] _3435_ d_lut_NAND2X1
A_10157_ [gnd \X_4_\_4_ gnd \X_4__5_bF$buf3\] _3436_ d_lut_AOI22X1
A_10158_ [_3436_] _3437_ d_lut_INVX1
A_10159_ [_3435_ _3437_ _3434_] _3438_ d_lut_AOI21X1
A_10160_ [_3438_ _3433_ _3427_] _3439_ d_lut_OAI21X1
A_10161_ [_3275_ _3346_ _3349_ _3345_] _3440_ d_lut_AOI22X1
A_10162_ [_3434_ _3437_ _3435_] _3441_ d_lut_NAND3X1
A_10163_ [gnd \X_4__5_bF$buf2\] _3442_ d_lut_NAND2X1
A_10164_ [_3429_ _3442_] _3443_ d_lut_NOR2X1
A_10165_ [_3436_ _3443_ _3428_] _3444_ d_lut_OAI21X1
A_10166_ [_3441_ _3440_ _3444_] _3445_ d_lut_NAND3X1
A_10167_ [_3439_ _3445_ _3426_] _3446_ d_lut_AOI21X1
A_10168_ [_3425_ _3420_] _3447_ d_lut_AND2X2
A_10169_ [_3427_ _3441_ _3444_] _3448_ d_lut_NAND3X1
A_10170_ [_3438_ _3433_ _3440_] _3449_ d_lut_OAI21X1
A_10171_ [_3449_ _3448_ _3447_] _3450_ d_lut_AOI21X1
A_10172_ [_3446_ _3450_ _3412_] _3451_ d_lut_OAI21X1
A_10173_ [_3355_] _3452_ d_lut_INVX1
A_10174_ [_3340_ _3359_ _3452_] _3453_ d_lut_AOI21X1
A_10175_ [_3448_ _3447_ _3449_] _3454_ d_lut_NAND3X1
A_10176_ [_3426_ _3445_ _3439_] _3455_ d_lut_NAND3X1
A_10177_ [_3454_ _3455_ _3453_] _3456_ d_lut_NAND3X1
A_10178_ [_3456_ _3451_ _3410_] _3457_ d_lut_AOI21X1
A_10179_ [_3409_ _3406_] _3458_ d_lut_AND2X2
A_10180_ [_3412_ _3454_ _3455_] _3459_ d_lut_NAND3X1
A_10181_ [_3446_ _3450_ _3453_] _3460_ d_lut_OAI21X1
A_10182_ [_3460_ _3459_ _3458_] _3461_ d_lut_AOI21X1
A_10183_ [_3461_ _3457_ _3397_] _3462_ d_lut_OAI21X1
A_10184_ [_3365_] _3463_ d_lut_INVX1
A_10185_ [_3372_ _3370_ _3463_] _3464_ d_lut_AOI21X1
A_10186_ [_3459_ _3458_ _3460_] _3465_ d_lut_NAND3X1
A_10187_ [_3410_ _3451_ _3456_] _3466_ d_lut_NAND3X1
A_10188_ [_3465_ _3466_ _3464_] _3467_ d_lut_NAND3X1
A_10189_ [_3467_ _3462_ _3323_] _3468_ d_lut_AOI21X1
A_10190_ [_3323_] _3469_ d_lut_INVX1
A_10191_ [_3397_ _3465_ _3466_] _3470_ d_lut_NAND3X1
A_10192_ [_3457_ _3461_ _3464_] _3471_ d_lut_OAI21X1
A_10193_ [_3471_ _3470_ _3469_] _3472_ d_lut_AOI21X1
A_10194_ [_3472_ _3468_ _3384_] _3473_ d_lut_OAI21X1
A_10195_ [_3469_ _3470_ _3471_] _3474_ d_lut_NAND3X1
A_10196_ [_3323_ _3462_ _3467_] _3475_ d_lut_NAND3X1
A_10197_ [_3376_ _3474_ _3475_] _3476_ d_lut_NAND3X1
A_10198_ [_3473_ _3476_] _3477_ d_lut_AND2X2
A_10199_ [_3395_ _3392_ _3477_] _3478_ d_lut_OAI21X1
A_10200_ [_3395_ _3392_] _3479_ d_lut_NOR2X1
A_10201_ [_3475_ _3474_ _3376_] _3480_ d_lut_AOI21X1
A_10202_ [_3476_] _3481_ d_lut_INVX1
A_10203_ [_3480_ _3481_ _3479_] _3482_ d_lut_OAI21X1
A_10204_ [_3482_ _3478_] _3984__7_ d_lut_AND2X2
A_10205_ [_3473_ _3476_ _3392_] _3483_ d_lut_NAND3X1
A_10206_ [_3395_ _3473_ _3481_] _3484_ d_lut_AOI21X1
A_10207_ [_3484_ _3483_] _3485_ d_lut_NAND2X1
A_10208_ [_3470_] _3486_ d_lut_INVX1
A_10209_ [_3469_ _3471_ _3486_] _3487_ d_lut_AOI21X1
A_10210_ [_3398_ _3408_ _3404_] _3488_ d_lut_OAI21X1
A_10211_ [_3488_] _3489_ d_lut_INVX1
A_10212_ [_3454_ _3455_ _3412_] _3490_ d_lut_AOI21X1
A_10213_ [_3410_ _3490_ _3459_] _3491_ d_lut_OAI21X1
A_10214_ [\X_4_\_1_ gnd] _3492_ d_lut_NAND2X1
A_10215_ [gnd] _3493_ d_lut_INVX2
A_10216_ [_3958_ _3493_] _3494_ d_lut_NOR2X1
A_10217_ [_3413_ _3418_ _3417_] _3495_ d_lut_OAI21X1
A_10218_ [_3494_ _3495_] _3496_ d_lut_NOR2X1
A_10219_ [_3495_ _3494_] _3497_ d_lut_AND2X2
A_10220_ [_3496_ _3497_ _3492_] _3498_ d_lut_OAI21X1
A_10221_ [_3492_] _3499_ d_lut_INVX1
A_10222_ [_3495_ _3494_] _3500_ d_lut_OR2X2
A_10223_ [_3494_ _3495_] _3501_ d_lut_NAND2X1
A_10224_ [_3499_ _3501_ _3500_] _3502_ d_lut_NAND3X1
A_10225_ [_3498_ _3502_] _3503_ d_lut_NAND2X1
A_10226_ [_3444_ _3441_ _3427_] _3504_ d_lut_AOI21X1
A_10227_ [_3426_ _3504_ _3448_] _3505_ d_lut_OAI21X1
A_10228_ [\X_4_\_3_ gnd] _3506_ d_lut_NAND2X1
A_10229_ [vdd] _3507_ d_lut_INVX1
A_10230_ [_3203_ _3507_ _3213_] _3508_ d_lut_OAI21X1
A_10231_ [\X_4_\_4_ vdd] _3509_ d_lut_NAND2X1
A_10232_ [_3506_ _3509_ _3508_] _3510_ d_lut_OAI21X1
A_10233_ [_3428_ _3436_ _3435_] _3511_ d_lut_OAI21X1
A_10234_ [vdd \X_4_\_7_] _3512_ d_lut_NAND2X1
A_10235_ [gnd \X_4__5_bF$buf1\] _3513_ d_lut_NAND2X1
A_10236_ [gnd \X_4_\_6_ _3513_] _3514_ d_lut_NAND3X1
A_10237_ [gnd \X_4__5_bF$buf0\] _3515_ d_lut_AND2X2
A_10238_ [_3277_ _3332_ _3515_] _3516_ d_lut_OAI21X1
A_10239_ [_3516_ _3514_ _3512_] _3517_ d_lut_AOI21X1
A_10240_ [_3512_] _3518_ d_lut_INVX1
A_10241_ [gnd \X_4_\_6_] _3519_ d_lut_AND2X2
A_10242_ [_3515_ _3519_] _3520_ d_lut_NAND2X1
A_10243_ [gnd \X_4_\_6_] _3521_ d_lut_NAND2X1
A_10244_ [_3513_ _3521_] _3522_ d_lut_NAND2X1
A_10245_ [_3520_ _3522_ _3518_] _3523_ d_lut_AOI21X1
A_10246_ [_3523_ _3517_ _3511_] _3524_ d_lut_OAI21X1
A_10247_ [_3434_ _3437_ _3443_] _3525_ d_lut_AOI21X1
A_10248_ [_3518_ _3522_ _3520_] _3526_ d_lut_NAND3X1
A_10249_ [_3512_ _3514_ _3516_] _3527_ d_lut_NAND3X1
A_10250_ [_3526_ _3527_ _3525_] _3528_ d_lut_NAND3X1
A_10251_ [_3524_ _3528_ _3510_] _3529_ d_lut_AOI21X1
A_10252_ [_3510_] _3530_ d_lut_INVX1
A_10253_ [_3511_ _3526_ _3527_] _3531_ d_lut_NAND3X1
A_10254_ [_3523_ _3517_ _3525_] _3532_ d_lut_OAI21X1
A_10255_ [_3532_ _3531_ _3530_] _3533_ d_lut_AOI21X1
A_10256_ [_3529_ _3533_ _3505_] _3534_ d_lut_OAI21X1
A_10257_ [_3448_] _3535_ d_lut_INVX1
A_10258_ [_3447_ _3449_ _3535_] _3536_ d_lut_AOI21X1
A_10259_ [_3530_ _3531_ _3532_] _3537_ d_lut_NAND3X1
A_10260_ [_3510_ _3528_ _3524_] _3538_ d_lut_NAND3X1
A_10261_ [_3537_ _3538_ _3536_] _3539_ d_lut_NAND3X1
A_10262_ [_3539_ _3534_ _3503_] _3540_ d_lut_AOI21X1
A_10263_ [_3502_ _3498_] _3541_ d_lut_AND2X2
A_10264_ [_3537_ _3538_ _3505_] _3542_ d_lut_NAND3X1
A_10265_ [_3529_ _3533_ _3536_] _3543_ d_lut_OAI21X1
A_10266_ [_3543_ _3542_ _3541_] _3544_ d_lut_AOI21X1
A_10267_ [_3544_ _3540_ _3491_] _3545_ d_lut_OAI21X1
A_10268_ [_3459_] _3546_ d_lut_INVX1
A_10269_ [_3458_ _3460_ _3546_] _3547_ d_lut_AOI21X1
A_10270_ [_3541_ _3542_ _3543_] _3548_ d_lut_NAND3X1
A_10271_ [_3503_ _3534_ _3539_] _3549_ d_lut_NAND3X1
A_10272_ [_3548_ _3549_ _3547_] _3550_ d_lut_NAND3X1
A_10273_ [_3545_ _3550_ _3489_] _3551_ d_lut_AOI21X1
A_10274_ [_3491_ _3548_ _3549_] _3552_ d_lut_NAND3X1
A_10275_ [_3544_ _3540_ _3547_] _3553_ d_lut_OAI21X1
A_10276_ [_3553_ _3552_ _3488_] _3554_ d_lut_AOI21X1
A_10277_ [_3554_ _3551_ _3487_] _3555_ d_lut_OAI21X1
A_10278_ [_3466_ _3465_ _3397_] _3556_ d_lut_AOI21X1
A_10279_ [_3323_ _3556_ _3470_] _3557_ d_lut_OAI21X1
A_10280_ [_3488_ _3552_ _3553_] _3558_ d_lut_NAND3X1
A_10281_ [_3489_ _3550_ _3545_] _3559_ d_lut_NAND3X1
A_10282_ [_3557_ _3558_ _3559_] _3560_ d_lut_NAND3X1
A_10283_ [_3560_ _3555_] _3561_ d_lut_NAND2X1
A_10284_ [_3561_ _3485_] _3562_ d_lut_NAND2X1
A_10285_ [_3390_ _3480_ _3476_] _3563_ d_lut_OAI21X1
A_10286_ [_3477_ _3392_ _3563_] _3564_ d_lut_AOI21X1
A_10287_ [_3555_ _3560_] _3565_ d_lut_AND2X2
A_10288_ [_3565_ _3564_] _3566_ d_lut_NAND2X1
A_10289_ [_3562_ _3566_] _3984__8_ d_lut_NAND2X1
A_10290_ [_3560_] _3567_ d_lut_INVX1
A_10291_ [_3485_ _3555_ _3567_] _3568_ d_lut_AOI21X1
A_10292_ [_3549_ _3548_ _3491_] _3569_ d_lut_AOI21X1
A_10293_ [_3489_ _3569_ _3552_] _3570_ d_lut_OAI21X1
A_10294_ [_3492_ _3496_ _3501_] _3571_ d_lut_OAI21X1
A_10295_ [_3537_ _3538_ _3505_] _3572_ d_lut_AOI21X1
A_10296_ [_3503_ _3572_ _3542_] _3573_ d_lut_OAI21X1
A_10297_ [\X_4_\_2_ gnd] _3574_ d_lut_NAND2X1
A_10298_ [_3506_ _3509_] _3575_ d_lut_NOR2X1
A_10299_ [gnd _3575_] _3576_ d_lut_NAND2X1
A_10300_ [_3576_] _3577_ d_lut_INVX1
A_10301_ [\X_4_\_3_ gnd _3575_] _3578_ d_lut_AOI21X1
A_10302_ [_3578_ _3577_ _3574_] _3579_ d_lut_OAI21X1
A_10303_ [_3574_] _3580_ d_lut_INVX1
A_10304_ [_3578_] _3581_ d_lut_INVX1
A_10305_ [_3580_ _3576_ _3581_] _3582_ d_lut_NAND3X1
A_10306_ [_3582_ _3579_] _3583_ d_lut_AND2X2
A_10307_ [_3527_ _3526_ _3511_] _3584_ d_lut_AOI21X1
A_10308_ [_3510_ _3584_ _3531_] _3585_ d_lut_OAI21X1
A_10309_ [_3320_ _3509_] _3586_ d_lut_NOR2X1
A_10310_ [_3320_ _3509_] _3587_ d_lut_AND2X2
A_10311_ [_3586_ _3587_] _3588_ d_lut_NOR2X1
A_10312_ [gnd \X_4_\_6_] _3589_ d_lut_NAND2X1
A_10313_ [gnd \X_4__5_bF$buf3\ gnd \X_4_\_6_] _3590_ d_lut_AOI22X1
A_10314_ [_3442_ _3589_ _3512_ _3590_] _3591_ d_lut_OAI22X1
A_10315_ [gnd \X_4_\_6_ gnd \X_4_\_7_] _3592_ d_lut_AOI22X1
A_10316_ [gnd \X_4_\_7_] _3593_ d_lut_AND2X2
A_10317_ [_3519_ _3593_ _3592_] _3594_ d_lut_AOI21X1
A_10318_ [_3594_ _3591_] _3595_ d_lut_NAND2X1
A_10319_ [gnd \X_4_\_6_] _3596_ d_lut_AND2X2
A_10320_ [_3430_ _3596_ _3522_ _3518_] _3597_ d_lut_AOI22X1
A_10321_ [gnd \X_4_\_7_] _3598_ d_lut_NAND2X1
A_10322_ [_3589_ _3598_] _3599_ d_lut_NAND2X1
A_10323_ [gnd \X_4_\_7_] _3600_ d_lut_NAND2X1
A_10324_ [_3521_ _3600_ _3599_] _3601_ d_lut_OAI21X1
A_10325_ [_3601_ _3597_] _3602_ d_lut_NAND2X1
A_10326_ [_3588_ _3595_ _3602_] _3603_ d_lut_NAND3X1
A_10327_ [\X_4__5_bF$buf2\ vdd] _3604_ d_lut_NAND2X1
A_10328_ [\X_4_\_4_] _3605_ d_lut_INVX1
A_10329_ [_3605_ _3507_ _3320_] _3606_ d_lut_OAI21X1
A_10330_ [_3213_ _3604_ _3606_] _3607_ d_lut_OAI21X1
A_10331_ [_3591_ _3601_] _3608_ d_lut_NAND2X1
A_10332_ [_3594_ _3597_] _3609_ d_lut_NAND2X1
A_10333_ [_3607_ _3608_ _3609_] _3610_ d_lut_NAND3X1
A_10334_ [_3603_ _3610_ _3585_] _3611_ d_lut_NAND3X1
A_10335_ [_3603_ _3610_] _3612_ d_lut_NAND2X1
A_10336_ [_3531_ _3537_ _3612_] _3613_ d_lut_NAND3X1
A_10337_ [_3583_ _3611_ _3613_] _3614_ d_lut_NAND3X1
A_10338_ [_3579_ _3582_] _3615_ d_lut_NAND2X1
A_10339_ [_3531_ _3537_ _3612_] _3616_ d_lut_AOI21X1
A_10340_ [_3603_ _3610_ _3585_] _3617_ d_lut_AOI21X1
A_10341_ [_3617_ _3616_ _3615_] _3618_ d_lut_OAI21X1
A_10342_ [_3614_ _3618_ _3573_] _3619_ d_lut_NAND3X1
A_10343_ [_3542_] _3620_ d_lut_INVX1
A_10344_ [_3541_ _3543_ _3620_] _3621_ d_lut_AOI21X1
A_10345_ [_3614_] _3622_ d_lut_INVX1
A_10346_ [_3613_ _3611_ _3583_] _3623_ d_lut_AOI21X1
A_10347_ [_3623_ _3622_ _3621_] _3624_ d_lut_OAI21X1
A_10348_ [_3571_ _3619_ _3624_] _3625_ d_lut_NAND3X1
A_10349_ [_3571_] _3626_ d_lut_INVX1
A_10350_ [_3619_] _3627_ d_lut_INVX1
A_10351_ [_3618_ _3614_ _3573_] _3628_ d_lut_AOI21X1
A_10352_ [_3628_ _3627_ _3626_] _3629_ d_lut_OAI21X1
A_10353_ [_3570_ _3625_ _3629_] _3630_ d_lut_NAND3X1
A_10354_ [_3552_] _3631_ d_lut_INVX1
A_10355_ [_3488_ _3553_ _3631_] _3632_ d_lut_AOI21X1
A_10356_ [_3623_ _3622_ _3573_] _3633_ d_lut_OAI21X1
A_10357_ [_3614_ _3618_ _3621_] _3634_ d_lut_NAND3X1
A_10358_ [_3634_ _3633_ _3626_] _3635_ d_lut_AOI21X1
A_10359_ [_3624_ _3619_ _3571_] _3636_ d_lut_AOI21X1
A_10360_ [_3635_ _3636_ _3632_] _3637_ d_lut_OAI21X1
A_10361_ [_3637_ _3630_] _3638_ d_lut_AND2X2
A_10362_ [_3568_ _3638_] _3639_ d_lut_OR2X2
A_10363_ [_3638_ _3568_] _3640_ d_lut_NAND2X1
A_10364_ [_3640_ _3639_] _3984__9_ d_lut_NAND2X1
A_10365_ [_3630_ _3637_] _3641_ d_lut_NAND2X1
A_10366_ [_3561_ _3641_] _3642_ d_lut_NOR2X1
A_10367_ [_3642_ _3485_] _3643_ d_lut_NAND2X1
A_10368_ [_3629_ _3625_ _3570_] _3644_ d_lut_AOI21X1
A_10369_ [_3560_ _3630_ _3644_] _3645_ d_lut_AOI21X1
A_10370_ [_3645_] _3646_ d_lut_INVX1
A_10371_ [_3626_ _3628_ _3619_] _3647_ d_lut_OAI21X1
A_10372_ [_3574_ _3578_ _3576_] _3648_ d_lut_OAI21X1
A_10373_ [_3615_ _3617_ _3611_] _3649_ d_lut_OAI21X1
A_10374_ [gnd] _3650_ d_lut_INVX2
A_10375_ [_3493_ _3320_ _3509_] _3651_ d_lut_NOR3X1
A_10376_ [_3605_ _3493_ _3213_ _3604_] _3652_ d_lut_OAI22X1
A_10377_ [_3652_] _3653_ d_lut_INVX1
A_10378_ [_3203_ _3650_ _3651_ _3653_] _3654_ d_lut_OAI22X1
A_10379_ [_3203_ _3650_] _3655_ d_lut_NOR2X1
A_10380_ [gnd _3586_] _3656_ d_lut_NAND2X1
A_10381_ [_3655_ _3652_ _3656_] _3657_ d_lut_NAND3X1
A_10382_ [_3654_ _3657_] _3658_ d_lut_AND2X2
A_10383_ [_3594_ _3591_] _3659_ d_lut_NOR2X1
A_10384_ [_3607_ _3659_ _3595_] _3660_ d_lut_OAI21X1
A_10385_ [gnd \X_4_\_6_] _3661_ d_lut_NAND2X1
A_10386_ [_3661_ _3604_] _3662_ d_lut_NOR2X1
A_10387_ [_3661_ _3604_] _3663_ d_lut_AND2X2
A_10388_ [_3519_ _3600_ _3662_ _3663_] _3664_ d_lut_OAI22X1
A_10389_ [gnd \X_4_\_6_] _3665_ d_lut_AND2X2
A_10390_ [\X_4__5_bF$buf1\ vdd] _3666_ d_lut_AND2X2
A_10391_ [_3665_ _3666_] _3667_ d_lut_NAND2X1
A_10392_ [_3262_ _3507_ _3661_] _3668_ d_lut_OAI21X1
A_10393_ [gnd \X_4_\_6_ _3600_] _3669_ d_lut_AOI21X1
A_10394_ [_3668_ _3669_ _3667_] _3670_ d_lut_NAND3X1
A_10395_ [_3664_ _3670_] _3671_ d_lut_AND2X2
A_10396_ [_3671_ _3660_] _3672_ d_lut_NAND2X1
A_10397_ [_3670_ _3664_] _3673_ d_lut_NAND2X1
A_10398_ [_3595_ _3673_ _3603_] _3674_ d_lut_NAND3X1
A_10399_ [_3658_ _3674_ _3672_] _3675_ d_lut_NAND3X1
A_10400_ [_3657_ _3654_] _3676_ d_lut_NAND2X1
A_10401_ [_3673_ _3660_] _3677_ d_lut_NAND2X1
A_10402_ [_3595_ _3671_ _3603_] _3678_ d_lut_NAND3X1
A_10403_ [_3676_ _3678_ _3677_] _3679_ d_lut_NAND3X1
A_10404_ [_3675_ _3679_ _3649_] _3680_ d_lut_NAND3X1
A_10405_ [_3679_ _3675_] _3681_ d_lut_NAND2X1
A_10406_ [_3611_ _3614_ _3681_] _3682_ d_lut_NAND3X1
A_10407_ [_3648_ _3682_ _3680_] _3683_ d_lut_NAND3X1
A_10408_ [_3648_] _3684_ d_lut_INVX1
A_10409_ [_3681_ _3649_] _3685_ d_lut_NAND2X1
A_10410_ [_3583_ _3613_ _3616_] _3686_ d_lut_AOI21X1
A_10411_ [_3675_ _3679_] _3687_ d_lut_AND2X2
A_10412_ [_3686_ _3687_] _3688_ d_lut_NAND2X1
A_10413_ [_3684_ _3685_ _3688_] _3689_ d_lut_NAND3X1
A_10414_ [_3683_ _3689_ _3647_] _3690_ d_lut_AOI21X1
A_10415_ [_3683_ _3689_] _3691_ d_lut_NAND2X1
A_10416_ [_3619_ _3625_ _3691_] _3692_ d_lut_AOI21X1
A_10417_ [_3690_ _3692_] _3693_ d_lut_NOR2X1
A_10418_ [_3693_] _3694_ d_lut_INVX1
A_10419_ [_3643_ _3646_ _3694_] _3695_ d_lut_AOI21X1
A_10420_ [_3565_ _3638_] _3696_ d_lut_NAND2X1
A_10421_ [_3696_ _3564_ _3646_] _3697_ d_lut_OAI21X1
A_10422_ [_3693_ _3697_] _3698_ d_lut_NOR2X1
A_10423_ [_3695_ _3698_] _3984__10_ d_lut_NOR2X1
A_10424_ [_3683_ _3689_ _3647_] _3699_ d_lut_NAND3X1
A_10425_ [_3693_ _3697_] _3700_ d_lut_NAND2X1
A_10426_ [_3681_ _3686_] _3701_ d_lut_NOR2X1
A_10427_ [_3648_ _3682_ _3701_] _3702_ d_lut_AOI21X1
A_10428_ [_3656_ _3657_] _3703_ d_lut_NAND2X1
A_10429_ [_3672_ _3675_] _3704_ d_lut_NAND2X1
A_10430_ [_3493_ _3661_ _3604_] _3705_ d_lut_NOR3X1
A_10431_ [\X_4__5_bF$buf0\ gnd _3665_ _3666_] _3706_ d_lut_AOI22X1
A_10432_ [_3605_ _3650_ _3706_ _3705_] _3707_ d_lut_OAI22X1
A_10433_ [_3605_ _3650_] _3708_ d_lut_NOR2X1
A_10434_ [gnd _3662_] _3709_ d_lut_NAND2X1
A_10435_ [_3262_ _3493_ _3667_] _3710_ d_lut_OAI21X1
A_10436_ [_3708_ _3709_ _3710_] _3711_ d_lut_NAND3X1
A_10437_ [_3707_ _3711_] _3712_ d_lut_NAND2X1
A_10438_ [_3519_ _3593_] _3713_ d_lut_NAND2X1
A_10439_ [vdd \X_4_\_7_] _3714_ d_lut_NAND2X1
A_10440_ [_3421_ _3423_ _3507_ _3332_] _3715_ d_lut_OAI22X1
A_10441_ [_3661_ _3714_ _3715_] _3716_ d_lut_OAI21X1
A_10442_ [_3713_ _3716_ _3670_] _3717_ d_lut_NAND3X1
A_10443_ [_3717_] _3718_ d_lut_INVX1
A_10444_ [_3670_ _3713_ _3716_] _3719_ d_lut_AOI21X1
A_10445_ [_3719_ _3718_ _3712_] _3720_ d_lut_OAI21X1
A_10446_ [_3711_ _3707_] _3721_ d_lut_AND2X2
A_10447_ [_3719_] _3722_ d_lut_INVX1
A_10448_ [_3717_ _3722_ _3721_] _3723_ d_lut_NAND3X1
A_10449_ [_3723_ _3720_] _3724_ d_lut_AND2X2
A_10450_ [_3724_ _3704_] _3725_ d_lut_NAND2X1
A_10451_ [_3603_ _3595_ _3673_] _3726_ d_lut_AOI21X1
A_10452_ [_3658_ _3674_ _3726_] _3727_ d_lut_AOI21X1
A_10453_ [_3720_ _3723_] _3728_ d_lut_NAND2X1
A_10454_ [_3728_ _3727_] _3729_ d_lut_NAND2X1
A_10455_ [_3703_ _3729_ _3725_] _3730_ d_lut_NAND3X1
A_10456_ [_3703_] _3731_ d_lut_INVX1
A_10457_ [_3728_ _3704_] _3732_ d_lut_NAND2X1
A_10458_ [_3727_ _3724_] _3733_ d_lut_NAND2X1
A_10459_ [_3731_ _3733_ _3732_] _3734_ d_lut_NAND3X1
A_10460_ [_3730_ _3734_] _3735_ d_lut_NAND2X1
A_10461_ [_3735_ _3702_] _3736_ d_lut_NAND2X1
A_10462_ [_3675_ _3679_ _3649_] _3737_ d_lut_AOI21X1
A_10463_ [_3684_ _3737_ _3680_] _3738_ d_lut_OAI21X1
A_10464_ [_3730_ _3734_ _3738_] _3739_ d_lut_NAND3X1
A_10465_ [_3736_ _3739_] _3740_ d_lut_NAND2X1
A_10466_ [_3740_] _3741_ d_lut_INVX1
A_10467_ [_3699_ _3741_ _3700_] _3742_ d_lut_NAND3X1