* XSpice netlist created from SPICE and liberty sources by spi2xspice.py
*SPICE netlist created from verilog structural netlist module cpu by vlog2Spice (qflow)
** Start of included library /usr/local/share/qflow/tech/etri050/etri050_stdcells.sp
* NGSPICE file created from khu_etri050_stdcells.ext - technology: scmos
** End of included library /usr/local/share/qflow/tech/etri050/etri050_stdcells.sp
.subckt cpu a_vdd a_gnd a_AB_0_ a_AB_1_ a_AB_2_ a_AB_3_ a_AB_4_ a_AB_5_ a_AB_6_ a_AB_7_ a_AB_8_ a_AB_9_ a_AB_10_ a_AB_11_ a_AB_12_ a_AB_13_ a_AB_14_ a_AB_15_ a_DI_0_ a_DI_1_ a_DI_2_ a_DI_3_ a_DI_4_ a_DI_5_ a_DI_6_ a_DI_7_ a_DO_0_ a_DO_1_ a_DO_2_ a_DO_3_ a_DO_4_ a_DO_5_ a_DO_6_ a_DO_7_ a_IRQ a_NMI a_RDY a_WE a_clk a_reset
ABUFX2_insert97 [_1219_] _1219__bF$buf0 d_lut_BUFX2
ABUFX2_insert96 [_1219_] _1219__bF$buf1 d_lut_BUFX2
ABUFX2_insert95 [_1219_] _1219__bF$buf2 d_lut_BUFX2
ABUFX2_insert94 [_1219_] _1219__bF$buf3 d_lut_BUFX2
ABUFX2_insert93 [_691_] _691__bF$buf0 d_lut_BUFX2
ABUFX2_insert92 [_691_] _691__bF$buf1 d_lut_BUFX2
ABUFX2_insert91 [_691_] _691__bF$buf2 d_lut_BUFX2
ABUFX2_insert90 [_691_] _691__bF$buf3 d_lut_BUFX2
ABUFX2_insert89 [_882_] _882__bF$buf0 d_lut_BUFX2
ABUFX2_insert88 [_882_] _882__bF$buf1 d_lut_BUFX2
ABUFX2_insert87 [_882_] _882__bF$buf2 d_lut_BUFX2
ABUFX2_insert86 [_882_] _882__bF$buf3 d_lut_BUFX2
ABUFX2_insert85 [_1002_] _1002__bF$buf0 d_lut_BUFX2
ABUFX2_insert84 [_1002_] _1002__bF$buf1 d_lut_BUFX2
ABUFX2_insert83 [_1002_] _1002__bF$buf2 d_lut_BUFX2
ABUFX2_insert82 [_1002_] _1002__bF$buf3 d_lut_BUFX2
ABUFX2_insert81 [_1002_] _1002__bF$buf4 d_lut_BUFX2
ABUFX2_insert80 [_853_] _853__bF$buf0 d_lut_BUFX2
ABUFX2_insert79 [_853_] _853__bF$buf1 d_lut_BUFX2
ABUFX2_insert78 [_853_] _853__bF$buf2 d_lut_BUFX2
ABUFX2_insert77 [_853_] _853__bF$buf3 d_lut_BUFX2
ABUFX2_insert76 [_853_] _853__bF$buf4 d_lut_BUFX2
ABUFX2_insert75 [_853_] _853__bF$buf5 d_lut_BUFX2
ABUFX2_insert74 [_853_] _853__bF$buf6 d_lut_BUFX2
ABUFX2_insert73 [_853_] _853__bF$buf7 d_lut_BUFX2
ABUFX2_insert72 [_918_] _918__bF$buf0 d_lut_BUFX2
ABUFX2_insert71 [_918_] _918__bF$buf1 d_lut_BUFX2
ABUFX2_insert70 [_918_] _918__bF$buf2 d_lut_BUFX2
ABUFX2_insert69 [_918_] _918__bF$buf3 d_lut_BUFX2
ABUFX2_insert68 [_830_] _830__bF$buf0 d_lut_BUFX2
ABUFX2_insert67 [_830_] _830__bF$buf1 d_lut_BUFX2
ABUFX2_insert66 [_830_] _830__bF$buf2 d_lut_BUFX2
ABUFX2_insert65 [_830_] _830__bF$buf3 d_lut_BUFX2
ABUFX2_insert64 [_1129_] _1129__bF$buf0 d_lut_BUFX2
ABUFX2_insert63 [_1129_] _1129__bF$buf1 d_lut_BUFX2
ABUFX2_insert62 [_1129_] _1129__bF$buf2 d_lut_BUFX2
ABUFX2_insert61 [_1129_] _1129__bF$buf3 d_lut_BUFX2
ABUFX2_insert60 [_1129_] _1129__bF$buf4 d_lut_BUFX2
ABUFX2_insert59 [_1649_] _1649__bF$buf0 d_lut_BUFX2
ABUFX2_insert58 [_1649_] _1649__bF$buf1 d_lut_BUFX2
ABUFX2_insert57 [_1649_] _1649__bF$buf2 d_lut_BUFX2
ABUFX2_insert56 [_1649_] _1649__bF$buf3 d_lut_BUFX2
ABUFX2_insert55 [_886_] _886__bF$buf0 d_lut_BUFX2
ABUFX2_insert54 [_886_] _886__bF$buf1 d_lut_BUFX2
ABUFX2_insert53 [_886_] _886__bF$buf2 d_lut_BUFX2
ABUFX2_insert52 [_886_] _886__bF$buf3 d_lut_BUFX2
ABUFX2_insert51 [IRHOLD_valid] IRHOLD_valid_bF$buf0 d_lut_BUFX2
ABUFX2_insert50 [IRHOLD_valid] IRHOLD_valid_bF$buf1 d_lut_BUFX2
ABUFX2_insert49 [IRHOLD_valid] IRHOLD_valid_bF$buf2 d_lut_BUFX2
ABUFX2_insert48 [IRHOLD_valid] IRHOLD_valid_bF$buf3 d_lut_BUFX2
ABUFX2_insert47 [_869_] _869__bF$buf0 d_lut_BUFX2
ABUFX2_insert46 [_869_] _869__bF$buf1 d_lut_BUFX2
ABUFX2_insert45 [_869_] _869__bF$buf2 d_lut_BUFX2
ABUFX2_insert44 [_869_] _869__bF$buf3 d_lut_BUFX2
ABUFX2_insert43 [_887_] _887__bF$buf0 d_lut_BUFX2
ABUFX2_insert42 [_887_] _887__bF$buf1 d_lut_BUFX2
ABUFX2_insert41 [_887_] _887__bF$buf2 d_lut_BUFX2
ABUFX2_insert40 [_887_] _887__bF$buf3 d_lut_BUFX2
ABUFX2_insert39 [_887_] _887__bF$buf4 d_lut_BUFX2
ACLKBUF1_insert38 [clk] clk_bF$buf0 d_lut_CLKBUF1
ACLKBUF1_insert37 [clk] clk_bF$buf1 d_lut_CLKBUF1
ACLKBUF1_insert36 [clk] clk_bF$buf2 d_lut_CLKBUF1
ACLKBUF1_insert35 [clk] clk_bF$buf3 d_lut_CLKBUF1
ACLKBUF1_insert34 [clk] clk_bF$buf4 d_lut_CLKBUF1
ACLKBUF1_insert33 [clk] clk_bF$buf5 d_lut_CLKBUF1
ACLKBUF1_insert32 [clk] clk_bF$buf6 d_lut_CLKBUF1
ACLKBUF1_insert31 [clk] clk_bF$buf7 d_lut_CLKBUF1
ACLKBUF1_insert30 [clk] clk_bF$buf8 d_lut_CLKBUF1
ACLKBUF1_insert29 [clk] clk_bF$buf9 d_lut_CLKBUF1
ACLKBUF1_insert28 [clk] clk_bF$buf10 d_lut_CLKBUF1
ABUFX2_insert27 [_1_] _1__bF$buf0 d_lut_BUFX2
ABUFX2_insert26 [_1_] _1__bF$buf1 d_lut_BUFX2
ABUFX2_insert25 [_1_] _1__bF$buf2 d_lut_BUFX2
ABUFX2_insert24 [_1_] _1__bF$buf3 d_lut_BUFX2
ABUFX2_insert23 [_1_] _1__bF$buf4 d_lut_BUFX2
ABUFX2_insert22 [_1_] _1__bF$buf5 d_lut_BUFX2
ABUFX2_insert21 [_1_] _1__bF$buf6 d_lut_BUFX2
ABUFX2_insert20 [_1_] _1__bF$buf7 d_lut_BUFX2
ABUFX2_insert19 [_1_] _1__bF$buf8 d_lut_BUFX2
ABUFX2_insert18 [_1_] _1__bF$buf9 d_lut_BUFX2
ABUFX2_insert17 [_1_] _1__bF$buf10 d_lut_BUFX2
ABUFX2_insert16 [_1051_] _1051__bF$buf0 d_lut_BUFX2
ABUFX2_insert15 [_1051_] _1051__bF$buf1 d_lut_BUFX2
ABUFX2_insert14 [_1051_] _1051__bF$buf2 d_lut_BUFX2
ABUFX2_insert13 [_1051_] _1051__bF$buf3 d_lut_BUFX2
ABUFX2_insert12 [RDY] RDY_bF$buf0 d_lut_BUFX2
ABUFX2_insert11 [RDY] RDY_bF$buf1 d_lut_BUFX2
ABUFX2_insert10 [RDY] RDY_bF$buf2 d_lut_BUFX2
ABUFX2_insert9 [RDY] RDY_bF$buf3 d_lut_BUFX2
ABUFX2_insert8 [RDY] RDY_bF$buf4 d_lut_BUFX2
ABUFX2_insert7 [RDY] RDY_bF$buf5 d_lut_BUFX2
ABUFX2_insert6 [RDY] RDY_bF$buf6 d_lut_BUFX2
ABUFX2_insert5 [RDY] RDY_bF$buf7 d_lut_BUFX2
ABUFX2_insert4 [RDY] RDY_bF$buf8 d_lut_BUFX2
ABUFX2_insert3 [_926_] _926__bF$buf0 d_lut_BUFX2
ABUFX2_insert2 [_926_] _926__bF$buf1 d_lut_BUFX2
ABUFX2_insert1 [_926_] _926__bF$buf2 d_lut_BUFX2
ABUFX2_insert0 [_926_] _926__bF$buf3 d_lut_BUFX2
A_1688_ [DIHOLD_0_] _849_ d_lut_INVX1
A_1689_ [DI_0_ RDY_bF$buf8] _850_ d_lut_NAND2X1
A_1690_ [RDY_bF$buf7 _849_ _850_] DIMUX_0_ d_lut_OAI21X1
A_1691_ [DIHOLD_1_] _851_ d_lut_INVX1
A_1692_ [RDY_bF$buf6 DI_1_] _852_ d_lut_NAND2X1
A_1693_ [RDY_bF$buf5 _851_ _852_] DIMUX_1_ d_lut_OAI21X1
A_1694_ [RDY_bF$buf4] _853_ d_lut_INVX8
A_1695_ [RDY_bF$buf3 DIHOLD_2_] _854_ d_lut_OR2X2
A_1696_ [_853__bF$buf7 DI_2_ _854_] _855_ d_lut_OAI21X1
A_1697_ [_855_] DIMUX_2_ d_lut_INVX1
A_1698_ [RDY_bF$buf2 DIHOLD_3_] _856_ d_lut_OR2X2
A_1699_ [_853__bF$buf6 DI_3_ _856_] _857_ d_lut_OAI21X1
A_1700_ [_857_] DIMUX_3_ d_lut_INVX1
A_1701_ [RDY_bF$buf1 DIHOLD_4_] _858_ d_lut_OR2X2
A_1702_ [_853__bF$buf5 DI_4_ _858_] _859_ d_lut_OAI21X1
A_1703_ [_859_] DIMUX_4_ d_lut_INVX1
A_1704_ [RDY_bF$buf0 DIHOLD_5_] _860_ d_lut_OR2X2
A_1705_ [_853__bF$buf4 DI_5_ _860_] _861_ d_lut_OAI21X1
A_1706_ [_861_] DIMUX_5_ d_lut_INVX1
A_1707_ [RDY_bF$buf8 DIHOLD_6_] _862_ d_lut_OR2X2
A_1708_ [_853__bF$buf3 DI_6_ _862_] _863_ d_lut_OAI21X1
A_1709_ [_863_] DIMUX_6_ d_lut_INVX1
A_1710_ [DI_7_ DIHOLD_7_ RDY_bF$buf7] _864_ d_lut_MUX2X1
A_1711_ [_864_] DIMUX_7_ d_lut_INVX1
A_1712_ [CO] _865_ d_lut_INVX1
A_1713_ [state_3_] _866_ d_lut_INVX1
A_1714_ [state_2_ _866_] _867_ d_lut_NAND2X1
A_1715_ [_867_] _868_ d_lut_INVX1
A_1716_ [state_5_ state_4_] _869_ d_lut_NOR2X1
A_1717_ [state_1_] _870_ d_lut_INVX1
A_1718_ [state_0_ _870_] _871_ d_lut_NOR2X1
A_1719_ [_869__bF$buf3 _871_ _868_] _872_ d_lut_NAND3X1
A_1720_ [state_2_] _873_ d_lut_INVX1
A_1721_ [_873_ _866_] _874_ d_lut_NAND2X1
A_1722_ [state_1_ state_0_] _875_ d_lut_NAND2X1
A_1723_ [_875_ _874_] _876_ d_lut_NOR2X1
A_1724_ [_869__bF$buf2 _876_] _877_ d_lut_NAND2X1
A_1725_ [_877_] _878_ d_lut_INVX1
A_1726_ [state_1_ state_0_] _879_ d_lut_NOR2X1
A_1727_ [_879_ _868_] _880_ d_lut_NAND2X1
A_1728_ [state_5_] _881_ d_lut_INVX2
A_1729_ [state_4_ _881_] _882_ d_lut_NAND2X1
A_1730_ [_882__bF$buf3 _880_] _883_ d_lut_NOR2X1
A_1731_ [_883_ _878_] _884_ d_lut_NOR2X1
A_1732_ [_884_ _872_] _885_ d_lut_AND2X2
A_1733_ [state_4_ _881_] _886_ d_lut_NOR2X1
A_1734_ [_886__bF$buf3] _887_ d_lut_INVX8
A_1735_ [state_0_] _888_ d_lut_INVX1
A_1736_ [state_1_ _888_] _889_ d_lut_NAND2X1
A_1737_ [_867_ _889_] _890_ d_lut_NOR2X1
A_1738_ [_890_] _891_ d_lut_INVX2
A_1739_ [state_3_ _873_] _892_ d_lut_NAND2X1
A_1740_ [_889_ _892_] _893_ d_lut_NOR2X1
A_1741_ [_886__bF$buf2 _893_] _894_ d_lut_NAND2X1
A_1742_ [_887__bF$buf4 _891_ _894_] _895_ d_lut_OAI21X1
A_1743_ [state_2_ state_3_] _896_ d_lut_NAND2X1
A_1744_ [_875_ _896_] _897_ d_lut_NOR2X1
A_1745_ [_869__bF$buf1 _897_] _898_ d_lut_NAND2X1
A_1746_ [state_0_ _870_] _899_ d_lut_NAND2X1
A_1747_ [_867_ _899_] _900_ d_lut_NOR2X1
A_1748_ [_900_] _901_ d_lut_INVX1
A_1749_ [_887__bF$buf3 _901_ _898_] _902_ d_lut_OAI21X1
A_1750_ [_902_ _895_] _903_ d_lut_NOR2X1
A_1751_ [_865_ _885_ _903_] _904_ d_lut_OAI21X1
A_1752_ [_875_ _867_] _905_ d_lut_NOR2X1
A_1753_ [_875_ _892_] _906_ d_lut_NOR2X1
A_1754_ [_905_ _906_ _886__bF$buf1] _907_ d_lut_OAI21X1
A_1755_ [rotate] _908_ d_lut_INVX1
A_1756_ [_870_ _888_] _909_ d_lut_NAND2X1
A_1757_ [_867_ _909_] _910_ d_lut_NOR2X1
A_1758_ [_876_ _910_ _886__bF$buf0] _911_ d_lut_OAI21X1
A_1759_ [shift] _912_ d_lut_INVX1
A_1760_ [_912_ inc rotate] _913_ d_lut_AOI21X1
A_1761_ [state_2_ state_3_] _914_ d_lut_AND2X2
A_1762_ [state_1_ _888_] _915_ d_lut_NOR2X1
A_1763_ [_914_ _915_] _916_ d_lut_NAND2X1
A_1764_ [state_4_] _917_ d_lut_INVX4
A_1765_ [_881_ _917_] _918_ d_lut_NAND2X1
A_1766_ [_918__bF$buf3 _916_] _919_ d_lut_NOR2X1
A_1767_ [compare] _920_ d_lut_INVX1
A_1768_ [C _912_] _921_ d_lut_NAND2X1
A_1769_ [load_only _921_ _920_] _922_ d_lut_OAI21X1
A_1770_ [rotate _922_ _919_] _923_ d_lut_OAI21X1
A_1771_ [_911_ _913_ _923_] _924_ d_lut_OAI21X1
A_1772_ [C _908_ _924_] _925_ d_lut_OAI21X1
A_1773_ [state_5_ _917_] _926_ d_lut_NOR2X1
A_1774_ [_889_ _874_] _927_ d_lut_NOR2X1
A_1775_ [_896_ _889_] _928_ d_lut_NOR2X1
A_1776_ [_928_ _927_ _926__bF$buf3] _929_ d_lut_OAI21X1
A_1777_ [_907_ _929_ _925_] _930_ d_lut_NAND3X1
A_1778_ [_904_ _930_] CI d_lut_OR2X2
A_1779_ [PC_0_] _931_ d_lut_INVX2
A_1780_ [DIMUX_0_] _932_ d_lut_INVX1
A_1781_ [_869__bF$buf0 _900_] _933_ d_lut_NAND2X1
A_1782_ [_926__bF$buf2 _928_] _934_ d_lut_NAND2X1
A_1783_ [_899_ _874_] _935_ d_lut_NOR2X1
A_1784_ [_935_] _936_ d_lut_INVX2
A_1785_ [_918__bF$buf2 _936_ _934_] _937_ d_lut_OAI21X1
A_1786_ [_886__bF$buf3 _900_] _938_ d_lut_NAND2X1
A_1787_ [_887__bF$buf2 _936_ _938_] _939_ d_lut_OAI21X1
A_1788_ [_939_ _937_] _940_ d_lut_OR2X2
A_1789_ [_876_] _941_ d_lut_INVX1
A_1790_ [_887__bF$buf1 _941_] _942_ d_lut_NOR2X1
A_1791_ [_933_] _943_ d_lut_INVX1
A_1792_ [_943_ _942_] _944_ d_lut_NOR2X1
A_1793_ [state_2_ _866_] _945_ d_lut_NOR2X1
A_1794_ [_915_ _945_] _946_ d_lut_NAND2X1
A_1795_ [_918__bF$buf1 _946_ _944_] _947_ d_lut_OAI21X1
A_1796_ [_940_ _947_] _948_ d_lut_NOR2X1
A_1797_ [_881_ _893_] _949_ d_lut_NAND2X1
A_1798_ [_949_] _950_ d_lut_INVX1
A_1799_ [_887__bF$buf0 _880_] _951_ d_lut_NOR2X1
A_1800_ [_951_] _952_ d_lut_INVX1
A_1801_ [_914_ _879_] _953_ d_lut_AND2X2
A_1802_ [_926__bF$buf1 _953_] _954_ d_lut_NAND2X1
A_1803_ [_892_ _909_] _955_ d_lut_NOR2X1
A_1804_ [_953_ _955_ _869__bF$buf3] _956_ d_lut_OAI21X1
A_1805_ [_952_ _954_ _956_] _957_ d_lut_NAND3X1
A_1806_ [_950_ _957_] _958_ d_lut_NOR2X1
A_1807_ [_898_] _959_ d_lut_INVX1
A_1808_ [_875_] _960_ d_lut_INVX1
A_1809_ [_960_ _945_] _961_ d_lut_NAND2X1
A_1810_ [_882__bF$buf2 _961_ _907_] _962_ d_lut_OAI21X1
A_1811_ [_962_ _959_] _963_ d_lut_OR2X2
A_1812_ [_893_ _927_ _886__bF$buf2] _964_ d_lut_OAI21X1
A_1813_ [state_4_ _891_ _964_] _965_ d_lut_OAI21X1
A_1814_ [_965_ _963_] _966_ d_lut_NOR2X1
A_1815_ [_958_ _966_ _948_] _967_ d_lut_NAND3X1
A_1816_ [_931_ _933_ _932_ _967_] BI_0_ d_lut_OAI22X1
A_1817_ [PC_1_] _968_ d_lut_INVX2
A_1818_ [DIMUX_1_] _969_ d_lut_INVX2
A_1819_ [_968_ _933_ _969_ _967_] BI_1_ d_lut_OAI22X1
A_1820_ [PC_2_] _970_ d_lut_INVX1
A_1821_ [_970_ _933_ _855_ _967_] BI_2_ d_lut_OAI22X1
A_1822_ [PC_3_] _971_ d_lut_INVX2
A_1823_ [_971_ _933_ _857_ _967_] BI_3_ d_lut_OAI22X1
A_1824_ [PC_4_] _972_ d_lut_INVX1
A_1825_ [_972_ _933_ _859_ _967_] BI_4_ d_lut_OAI22X1
A_1826_ [PC_5_] _973_ d_lut_INVX2
A_1827_ [_973_ _933_ _861_ _967_] BI_5_ d_lut_OAI22X1
A_1828_ [PC_6_] _974_ d_lut_INVX2
A_1829_ [_974_ _933_ _863_ _967_] BI_6_ d_lut_OAI22X1
A_1830_ [PC_7_] _975_ d_lut_INVX2
A_1831_ [_975_ _933_ _864_ _967_] BI_7_ d_lut_OAI22X1
A_1832_ [_886__bF$buf1 _926__bF$buf0 _953_] _976_ d_lut_OAI21X1
A_1833_ [_926__bF$buf3 _897_] _977_ d_lut_NAND2X1
A_1834_ [_869__bF$buf2 _906_] _978_ d_lut_NAND2X1
A_1835_ [_976_ _977_ _978_] _979_ d_lut_NAND3X1
A_1836_ [_979_] _980_ d_lut_INVX1
A_1837_ [_926__bF$buf2 _893_] _981_ d_lut_NAND2X1
A_1838_ [_934_ _938_ _981_] _982_ d_lut_NAND3X1
A_1839_ [_982_] _983_ d_lut_INVX1
A_1840_ [_917_ _955_] _984_ d_lut_NAND2X1
A_1841_ [_984_ _964_] _985_ d_lut_NAND2X1
A_1842_ [_985_] _986_ d_lut_INVX1
A_1843_ [_980_ _983_ _986_] _987_ d_lut_NAND3X1
A_1844_ [_879_ _914_] _988_ d_lut_NAND2X1
A_1845_ [_914_ _871_] _989_ d_lut_NAND2X1
A_1846_ [_926__bF$buf1 _876_] _990_ d_lut_NAND2X1
A_1847_ [_918__bF$buf0 _989_ _990_] _991_ d_lut_OAI21X1
A_1848_ [_869__bF$buf1 _927_] _992_ d_lut_NAND2X1
A_1849_ [_881_ _917_] _993_ d_lut_NOR2X1
A_1850_ [_993_] _994_ d_lut_INVX1
A_1851_ [state_2_ state_3_] _995_ d_lut_NOR2X1
A_1852_ [_995_ _879_] _996_ d_lut_NAND2X1
A_1853_ [_994_ _996_ _992_] _997_ d_lut_OAI21X1
A_1854_ [_991_ _997_] _998_ d_lut_NOR2X1
A_1855_ [_918__bF$buf3 _988_ _998_] _999_ d_lut_OAI21X1
A_1856_ [_987_ _999_] _1000_ d_lut_NOR2X1
A_1857_ [dst_reg_1_] _1001_ d_lut_INVX1
A_1858_ [_879_ _914_ _869__bF$buf0] _1002_ d_lut_NAND3X1
A_1859_ [_1001_ _1002__bF$buf4 _998_] _1003_ d_lut_OAI21X1
A_1860_ [_1000_ src_reg_1_ _1003_] _1004_ d_lut_AOI21X1
A_1861_ [_979_ _982_ _985_] _1005_ d_lut_NOR3X1
A_1862_ [_1002__bF$buf3 _998_ _1005_] _1006_ d_lut_NAND3X1
A_1863_ [_991_ _997_ index_y] _1007_ d_lut_OAI21X1
A_1864_ [_1002__bF$buf2] _1008_ d_lut_INVX2
A_1865_ [dst_reg_0_ _1008_] _1009_ d_lut_NAND2X1
A_1866_ [_1007_ _1009_ _1005_] _1010_ d_lut_NAND3X1
A_1867_ [_1010_ src_reg_0_ _1006_] _1011_ d_lut_MUX2X1
A_1868_ [_1004_ _1011_] _1012_ d_lut_NOR2X1
A_1869_ [\AXYS_3_\_0_ _1012_] _1013_ d_lut_NAND2X1
A_1870_ [src_reg_1_] _1014_ d_lut_INVX1
A_1871_ [_1003_] _1015_ d_lut_INVX1
A_1872_ [_1014_ _1006_ _1015_] _1016_ d_lut_OAI21X1
A_1873_ [_1005_ _1009_] _1017_ d_lut_AND2X2
A_1874_ [_1006_ _1007_ _1017_] _1018_ d_lut_NAND3X1
A_1875_ [_1006_ src_reg_0_] _1019_ d_lut_OR2X2
A_1876_ [_1019_ _1018_ _1016_] _1020_ d_lut_AOI21X1
A_1877_ [\AXYS_0_\_0_ _1020_] _1021_ d_lut_NAND2X1
A_1878_ [_1016_ _1011_] _1022_ d_lut_NOR2X1
A_1879_ [_1018_ _1019_ _1004_] _1023_ d_lut_AOI21X1
A_1880_ [\AXYS_2_\_0_ _1023_ _1022_ \AXYS_1_\_0_] _1024_ d_lut_AOI22X1
A_1881_ [_1013_ _1021_ _1024_] _1025_ d_lut_NAND3X1
A_1882_ [_1025_] _1026_ d_lut_INVX1
A_1883_ [_991_] _1027_ d_lut_INVX1
A_1884_ [_887__bF$buf4 _901_ _1027_] _1028_ d_lut_OAI21X1
A_1885_ [_954_] _1029_ d_lut_INVX1
A_1886_ [_1029_ _951_] _1030_ d_lut_NOR2X1
A_1887_ [_919_] _1031_ d_lut_INVX1
A_1888_ [_995_ _871_] _1032_ d_lut_NAND2X1
A_1889_ [state_4_ _1032_ load_only _1031_] _1033_ d_lut_OAI22X1
A_1890_ [_886__bF$buf0 _926__bF$buf0 _893_] _1034_ d_lut_OAI21X1
A_1891_ [_879_ _945_] _1035_ d_lut_NAND2X1
A_1892_ [_918__bF$buf2 _1035_] _1036_ d_lut_NOR2X1
A_1893_ [_996_] _1037_ d_lut_INVX2
A_1894_ [_993_ _1037_] _1038_ d_lut_NAND2X1
A_1895_ [_1038_] _1039_ d_lut_INVX1
A_1896_ [_1036_ _1039_] _1040_ d_lut_NOR2X1
A_1897_ [_1034_ _1040_] _1041_ d_lut_NAND2X1
A_1898_ [_1033_ _1041_] _1042_ d_lut_NOR2X1
A_1899_ [_934_] _1043_ d_lut_INVX1
A_1900_ [_887__bF$buf3 _936_] _1044_ d_lut_NOR2X1
A_1901_ [_1043_ _1044_] _1045_ d_lut_NOR2X1
A_1902_ [_1030_ _1045_ _1042_] _1046_ d_lut_NAND3X1
A_1903_ [_1028_ _1046_] _1047_ d_lut_NOR2X1
A_1904_ [_918__bF$buf1 _946_] _1048_ d_lut_NOR2X1
A_1905_ [_1048_] _1049_ d_lut_INVX1
A_1906_ [_963_] _1050_ d_lut_INVX1
A_1907_ [_869__bF$buf3 _893_] _1051_ d_lut_NAND2X1
A_1908_ [_887__bF$buf2 _891_ _1051__bF$buf3] _1052_ d_lut_OAI21X1
A_1909_ [_1052_] _1053_ d_lut_INVX1
A_1910_ [_1049_ _1053_ _1050_] _1054_ d_lut_NAND3X1
A_1911_ [ABH_0_] _1055_ d_lut_INVX1
A_1912_ [_1055_ _872_] _1056_ d_lut_NOR2X1
A_1913_ [_1056_] _1057_ d_lut_INVX1
A_1914_ [_932_ _944_ _1057_] _1058_ d_lut_OAI21X1
A_1915_ [_1054_ ADD_0_ _1058_] _1059_ d_lut_AOI21X1
A_1916_ [_1047_ _1026_ _1059_] AI_0_ d_lut_OAI21X1
A_1917_ [\AXYS_1_\_1_ _1022_] _1060_ d_lut_NAND2X1
A_1918_ [\AXYS_2_\_1_ _1023_ _1012_ \AXYS_3_\_1_] _1061_ d_lut_AOI22X1
A_1919_ [\AXYS_0_\_1_ _1020_] _1062_ d_lut_NAND2X1
A_1920_ [_1060_ _1062_ _1061_] _1063_ d_lut_NAND3X1
A_1921_ [_1063_] _1064_ d_lut_INVX1
A_1922_ [ABH_1_] _1065_ d_lut_INVX1
A_1923_ [_1065_ _872_] _1066_ d_lut_NOR2X1
A_1924_ [_1066_] _1067_ d_lut_INVX1
A_1925_ [_969_ _944_ _1067_] _1068_ d_lut_OAI21X1
A_1926_ [_1054_ ADD_1_ _1068_] _1069_ d_lut_AOI21X1
A_1927_ [_1047_ _1064_ _1069_] AI_1_ d_lut_OAI21X1
A_1928_ [\AXYS_1_\_2_ _1022_] _1070_ d_lut_NAND2X1
A_1929_ [\AXYS_2_\_2_ _1023_ _1012_ \AXYS_3_\_2_] _1071_ d_lut_AOI22X1
A_1930_ [\AXYS_0_\_2_ _1020_] _1072_ d_lut_NAND2X1
A_1931_ [_1070_ _1072_ _1071_] _1073_ d_lut_NAND3X1
A_1932_ [_1073_] _1074_ d_lut_INVX1
A_1933_ [_867_ _918__bF$buf0 _889_] _1075_ d_lut_NOR3X1
A_1934_ [ABH_2_ _1075_] _1076_ d_lut_NAND2X1
A_1935_ [_855_ _944_ _1076_] _1077_ d_lut_OAI21X1
A_1936_ [_1054_ ADD_2_ _1077_] _1078_ d_lut_AOI21X1
A_1937_ [_1047_ _1074_ _1078_] AI_2_ d_lut_OAI21X1
A_1938_ [\AXYS_1_\_3_ _1022_] _1079_ d_lut_NAND2X1
A_1939_ [\AXYS_2_\_3_ _1023_ _1012_ \AXYS_3_\_3_] _1080_ d_lut_AOI22X1
A_1940_ [\AXYS_0_\_3_ _1020_] _1081_ d_lut_NAND2X1
A_1941_ [_1079_ _1081_ _1080_] _1082_ d_lut_NAND3X1
A_1942_ [_1082_] _1083_ d_lut_INVX1
A_1943_ [ABH_3_ _1075_] _1084_ d_lut_NAND2X1
A_1944_ [_857_ _944_ _1084_] _1085_ d_lut_OAI21X1
A_1945_ [_1054_ ADD_3_ _1085_] _1086_ d_lut_AOI21X1
A_1946_ [_1047_ _1083_ _1086_] AI_3_ d_lut_OAI21X1
A_1947_ [\AXYS_1_\_4_ _1022_] _1087_ d_lut_NAND2X1
A_1948_ [\AXYS_2_\_4_ _1023_ _1012_ \AXYS_3_\_4_] _1088_ d_lut_AOI22X1
A_1949_ [\AXYS_0_\_4_ _1020_] _1089_ d_lut_NAND2X1
A_1950_ [_1087_ _1089_ _1088_] _1090_ d_lut_NAND3X1
A_1951_ [_1090_] _1091_ d_lut_INVX1
A_1952_ [ABH_4_ _1075_] _1092_ d_lut_NAND2X1
A_1953_ [_859_ _944_ _1092_] _1093_ d_lut_OAI21X1
A_1954_ [_1054_ ADD_4_ _1093_] _1094_ d_lut_AOI21X1
A_1955_ [_1047_ _1091_ _1094_] AI_4_ d_lut_OAI21X1
A_1956_ [\AXYS_1_\_5_ _1022_] _1095_ d_lut_NAND2X1
A_1957_ [\AXYS_2_\_5_ _1023_ _1012_ \AXYS_3_\_5_] _1096_ d_lut_AOI22X1
A_1958_ [\AXYS_0_\_5_ _1020_] _1097_ d_lut_NAND2X1
A_1959_ [_1095_ _1097_ _1096_] _1098_ d_lut_NAND3X1
A_1960_ [_1098_] _1099_ d_lut_INVX1
A_1961_ [ABH_5_ _1075_] _1100_ d_lut_NAND2X1
A_1962_ [_861_ _944_ _1100_] _1101_ d_lut_OAI21X1
A_1963_ [_1054_ ADD_5_ _1101_] _1102_ d_lut_AOI21X1
A_1964_ [_1047_ _1099_ _1102_] AI_5_ d_lut_OAI21X1
A_1965_ [\AXYS_1_\_6_ _1022_] _1103_ d_lut_NAND2X1
A_1966_ [\AXYS_2_\_6_ _1023_ _1012_ \AXYS_3_\_6_] _1104_ d_lut_AOI22X1
A_1967_ [\AXYS_0_\_6_ _1020_] _1105_ d_lut_NAND2X1
A_1968_ [_1103_ _1105_ _1104_] _1106_ d_lut_NAND3X1
A_1969_ [_1106_] _1107_ d_lut_INVX1
A_1970_ [ABH_6_] _1108_ d_lut_INVX1
A_1971_ [_1108_ _872_] _1109_ d_lut_NOR2X1
A_1972_ [_1109_] _1110_ d_lut_INVX1
A_1973_ [_863_ _944_ _1110_] _1111_ d_lut_OAI21X1
A_1974_ [_1054_ ADD_6_ _1111_] _1112_ d_lut_AOI21X1
A_1975_ [_1047_ _1107_ _1112_] AI_6_ d_lut_OAI21X1
A_1976_ [\AXYS_1_\_7_ _1022_] _1113_ d_lut_NAND2X1
A_1977_ [\AXYS_2_\_7_ _1023_ _1012_ \AXYS_3_\_7_] _1114_ d_lut_AOI22X1
A_1978_ [\AXYS_0_\_7_ _1020_] _1115_ d_lut_NAND2X1
A_1979_ [_1113_ _1115_ _1114_] _1116_ d_lut_NAND3X1
A_1980_ [_1116_] _1117_ d_lut_INVX1
A_1981_ [ABH_7_] _1118_ d_lut_INVX1
A_1982_ [_1118_ _872_] _1119_ d_lut_NOR2X1
A_1983_ [_1119_] _1120_ d_lut_INVX1
A_1984_ [_864_ _944_ _1120_] _1121_ d_lut_OAI21X1
A_1985_ [_1054_ AN _1121_] _1122_ d_lut_AOI21X1
A_1986_ [_1047_ _1117_ _1122_] AI_7_ d_lut_OAI21X1
A_1987_ [_926__bF$buf3 _900_] _1123_ d_lut_NAND2X1
A_1988_ [_1123_] _1124_ d_lut_INVX1
A_1989_ [CO store] _1125_ d_lut_OR2X2
A_1990_ [_883_ RDY_bF$buf6] _1126_ d_lut_AND2X2
A_1991_ [_853__bF$buf2 _1124_ _1126_ _1125_] _1127_ d_lut_AOI22X1
A_1992_ [_938_ RDY_bF$buf5] _1128_ d_lut_OR2X2
A_1993_ [_853__bF$buf1 _1002__bF$buf1] _1129_ d_lut_NOR2X1
A_1994_ [IRHOLD_1_] _1130_ d_lut_INVX1
A_1995_ [IRQ] _1131_ d_lut_INVX1
A_1996_ [NMI_edge] _1132_ d_lut_INVX1
A_1997_ [I _1131_ _1132_] _1133_ d_lut_OAI21X1
A_1998_ [IRHOLD_valid_bF$buf3 _1130_ _1133_] _1134_ d_lut_AOI21X1
A_1999_ [IRHOLD_valid_bF$buf2 DIMUX_1_ _1134_] _1135_ d_lut_OAI21X1
A_2000_ [IRHOLD_0_] _1136_ d_lut_INVX1
A_2001_ [_1136_ IRHOLD_valid_bF$buf1 _1133_] _1137_ d_lut_AOI21X1
A_2002_ [IRHOLD_valid_bF$buf0 DIMUX_0_ _1137_] _1138_ d_lut_OAI21X1
A_2003_ [_1135_ _1138_] _1139_ d_lut_NAND2X1
A_2004_ [IRHOLD_3_] _1140_ d_lut_INVX1
A_2005_ [IRHOLD_valid_bF$buf3 _1140_ _1133_] _1141_ d_lut_AOI21X1
A_2006_ [IRHOLD_valid_bF$buf2 DIMUX_3_ _1141_] _1142_ d_lut_OAI21X1
A_2007_ [I] _1143_ d_lut_INVX1
A_2008_ [_1131_ _1132_] _1144_ d_lut_NAND2X1
A_2009_ [_1143_ NMI_edge _1144_] _1145_ d_lut_OAI21X1
A_2010_ [IRHOLD_valid_bF$buf1 IRHOLD_2_] _1146_ d_lut_NAND2X1
A_2011_ [IRHOLD_valid_bF$buf0 _855_ _1146_] _1147_ d_lut_OAI21X1
A_2012_ [_1145_ _1147_] _1148_ d_lut_NAND2X1
A_2013_ [_1142_ _1148_] _1149_ d_lut_NAND2X1
A_2014_ [_1139_ _1149_] _1150_ d_lut_NOR2X1
A_2015_ [IRHOLD_valid_bF$buf3 IRHOLD_4_] _1151_ d_lut_NAND2X1
A_2016_ [IRHOLD_valid_bF$buf2 _859_ _1151_] _1152_ d_lut_OAI21X1
A_2017_ [IRHOLD_valid_bF$buf1 IRHOLD_5_] _1153_ d_lut_NAND2X1
A_2018_ [IRHOLD_valid_bF$buf0 _861_ _1153_] _1154_ d_lut_OAI21X1
A_2019_ [_1152_ _1154_ _1145_] _1155_ d_lut_OAI21X1
A_2020_ [_1155_] _1156_ d_lut_INVX1
A_2021_ [IRHOLD_valid_bF$buf3 IRHOLD_7_] _1157_ d_lut_NAND2X1
A_2022_ [IRHOLD_valid_bF$buf2 _864_ _1157_] _1158_ d_lut_OAI21X1
A_2023_ [_1145_ _1158_] _1159_ d_lut_NAND2X1
A_2024_ [IRHOLD_valid_bF$buf1 IRHOLD_6_] _1160_ d_lut_NAND2X1
A_2025_ [IRHOLD_valid_bF$buf0 _863_ _1160_] _1161_ d_lut_OAI21X1
A_2026_ [_1161_ _1145_] _1162_ d_lut_AND2X2
A_2027_ [_1159_ _1162_] _1163_ d_lut_NAND2X1
A_2028_ [_1156_ _1163_] _1164_ d_lut_NOR2X1
A_2029_ [_1129__bF$buf4 _1150_ _1164_] _1165_ d_lut_NAND3X1
A_2030_ [_1127_ _1128_ _1165_] _1166_ d_lut_NAND3X1
A_2031_ [_1166_] _1167_ d_lut_INVX1
A_2032_ [_1145_ _1152_] _1168_ d_lut_NAND2X1
A_2033_ [IRHOLD_valid_bF$buf3] _1169_ d_lut_INVX1
A_2034_ [_1169_ IRHOLD_3_ _1145_] _1170_ d_lut_OAI21X1
A_2035_ [_1169_ _857_ _1170_] _1171_ d_lut_AOI21X1
A_2036_ [_1148_ _1171_] _1172_ d_lut_NAND2X1
A_2037_ [_1172_] _1173_ d_lut_INVX1
A_2038_ [_1135_] _1174_ d_lut_INVX1
A_2039_ [_1138_ _1174_] _1175_ d_lut_NOR2X1
A_2040_ [_1175_ _1173_] _1176_ d_lut_NAND2X1
A_2041_ [_1138_ _1148_] _1177_ d_lut_NAND2X1
A_2042_ [_1159_] _1178_ d_lut_INVX1
A_2043_ [_1142_ _1178_] _1179_ d_lut_NAND2X1
A_2044_ [_1177_ _1179_ _1176_] _1180_ d_lut_OAI21X1
A_2045_ [_1129__bF$buf3 _1168_ _1180_] _1181_ d_lut_NAND3X1
A_2046_ [_917_ _936_] _1182_ d_lut_NOR2X1
A_2047_ [_1182_] _1183_ d_lut_INVX1
A_2048_ [_886__bF$buf3 _897_] _1184_ d_lut_NAND2X1
A_2049_ [_1184_] _1185_ d_lut_INVX1
A_2050_ [_869__bF$buf2 _910_] _1186_ d_lut_NAND2X1
A_2051_ [_918__bF$buf3 _936_ _1186_] _1187_ d_lut_OAI21X1
A_2052_ [_1185_ _1187_] _1188_ d_lut_NOR2X1
A_2053_ [_881_ _1183_ _1188_] _1189_ d_lut_OAI21X1
A_2054_ [_1189_] _1190_ d_lut_INVX1
A_2055_ [_887__bF$buf1 _989_] _1191_ d_lut_NOR2X1
A_2056_ [_1191_] _1192_ d_lut_INVX1
A_2057_ [_896_ _899_] _1193_ d_lut_NOR2X1
A_2058_ [_886__bF$buf2 _926__bF$buf2 _1193_] _1194_ d_lut_OAI21X1
A_2059_ [_900_ _935_ _926__bF$buf1] _1195_ d_lut_OAI21X1
A_2060_ [_1194_ _1195_ _1192_] _1196_ d_lut_NAND3X1
A_2061_ [RDY_bF$buf4 _1196_ _1190_] _1197_ d_lut_NAND3X1
A_2062_ [write_back _853__bF$buf0] _1198_ d_lut_NOR2X1
A_2063_ [RDY_bF$buf3 _883_] _1199_ d_lut_NAND2X1
A_2064_ [write_back _1125_] _1200_ d_lut_NOR2X1
A_2065_ [RDY_bF$buf2 _1200_ _878_] _1201_ d_lut_NAND3X1
A_2066_ [_1125_ _1199_ _1201_] _1202_ d_lut_OAI21X1
A_2067_ [_882__bF$buf1 _916_ _853__bF$buf7] _1203_ d_lut_OAI21X1
A_2068_ [_853__bF$buf6 _1029_ _1203_] _1204_ d_lut_OAI21X1
A_2069_ [_988_ _887__bF$buf0 RDY_bF$buf1] _1205_ d_lut_OAI21X1
A_2070_ [_887__bF$buf4 _916_ _853__bF$buf5] _1206_ d_lut_OAI21X1
A_2071_ [_1205_ _1206_] _1207_ d_lut_NAND2X1
A_2072_ [_853__bF$buf4 _919_] _1208_ d_lut_NAND2X1
A_2073_ [_1208_ _1207_ _1204_] _1209_ d_lut_NAND3X1
A_2074_ [_1202_ _1209_] _1210_ d_lut_OR2X2
A_2075_ [_1189_ _1198_ _1210_] _1211_ d_lut_AOI21X1
A_2076_ [_1211_ _1197_] _1212_ d_lut_AND2X2
A_2077_ [_1167_ _1181_ _1212_] _1213_ d_lut_NAND3X1
A_2078_ [_1139_] _1214_ d_lut_INVX1
A_2079_ [_1214_ _1173_] _1215_ d_lut_NAND2X1
A_2080_ [_1159_ _1155_] _1216_ d_lut_NAND2X1
A_2081_ [_1216_ _1215_] _1217_ d_lut_NOR2X1
A_2082_ [_853__bF$buf3 _1044_ _1217_ _1129__bF$buf2] _1218_ d_lut_AOI22X1
A_2083_ [_1129__bF$buf1] _1219_ d_lut_INVX8
A_2084_ [_1168_] _1220_ d_lut_INVX2
A_2085_ [_1220_ _1150_] _1221_ d_lut_NAND2X1
A_2086_ [_1219__bF$buf3 _1221_] _1222_ d_lut_NOR2X1
A_2087_ [_853__bF$buf2 _943_ _1222_] _1223_ d_lut_AOI21X1
A_2088_ [_882__bF$buf0 _1035_] _1224_ d_lut_NOR2X1
A_2089_ [_882__bF$buf3 _946_ _853__bF$buf1] _1225_ d_lut_OAI21X1
A_2090_ [_853__bF$buf0 _1224_ _1225_] _1226_ d_lut_OAI21X1
A_2091_ [_886__bF$buf1 _955_] _1227_ d_lut_NAND2X1
A_2092_ [_887__bF$buf3 _946_] _1228_ d_lut_NOR2X1
A_2093_ [_853__bF$buf7 _1228_] _1229_ d_lut_NAND2X1
A_2094_ [_853__bF$buf6 _1227_ _1229_] _1230_ d_lut_OAI21X1
A_2095_ [RDY_bF$buf0 _1036_] _1231_ d_lut_NAND2X1
A_2096_ [RDY_bF$buf8 _1049_ _1231_] _1232_ d_lut_OAI21X1
A_2097_ [_1230_ _1232_] _1233_ d_lut_NOR2X1
A_2098_ [_1233_ _1226_] _1234_ d_lut_AND2X2
A_2099_ [_993_ _935_] _1235_ d_lut_NAND2X1
A_2100_ [RDY_bF$buf7 _1039_] _1236_ d_lut_NAND2X1
A_2101_ [RDY_bF$buf6 _1235_ _1236_] _1237_ d_lut_OAI21X1
A_2102_ [_926__bF$buf0 _935_] _1238_ d_lut_NAND2X1
A_2103_ [_926__bF$buf3 _1037_] _1239_ d_lut_NAND2X1
A_2104_ [_1239_] _1240_ d_lut_INVX1
A_2105_ [RDY_bF$buf5 _1240_] _1241_ d_lut_NAND2X1
A_2106_ [RDY_bF$buf4 _1238_ _1241_] _1242_ d_lut_OAI21X1
A_2107_ [_1237_ _1242_] _1243_ d_lut_NOR2X1
A_2108_ [_918__bF$buf2 _936_] _1244_ d_lut_NOR2X1
A_2109_ [_918__bF$buf1 _996_ RDY_bF$buf3] _1245_ d_lut_OAI21X1
A_2110_ [RDY_bF$buf2 _1244_ _1245_] _1246_ d_lut_OAI21X1
A_2111_ [_1243_ _1246_] _1247_ d_lut_AND2X2
A_2112_ [_1247_ _1234_] _1248_ d_lut_AND2X2
A_2113_ [_1218_ _1223_ _1248_] _1249_ d_lut_NAND3X1
A_2114_ [write_back] _1250_ d_lut_INVX1
A_2115_ [_1250_ _1190_ RDY_bF$buf1] _1251_ d_lut_OAI21X1
A_2116_ [RDY_bF$buf0 _942_ _1251_] _1252_ d_lut_OAI21X1
A_2117_ [_1148_ _1171_] _1253_ d_lut_NOR2X1
A_2118_ [_1219__bF$buf2 _1220_] _1254_ d_lut_NOR2X1
A_2119_ [_853__bF$buf5 _1185_ _1254_ _1253_] _1255_ d_lut_AOI22X1
A_2120_ [_918__bF$buf0 _989_ RDY_bF$buf8] _1256_ d_lut_OAI21X1
A_2121_ [RDY_bF$buf7 _959_ _1256_] _1257_ d_lut_OAI21X1
A_2122_ [_1257_ _1255_] _1258_ d_lut_NAND2X1
A_2123_ [_960_ _868_] _1259_ d_lut_NAND2X1
A_2124_ [_887__bF$buf2 _1259_] _1260_ d_lut_NOR2X1
A_2125_ [_887__bF$buf1 _891_ RDY_bF$buf6] _1261_ d_lut_OAI21X1
A_2126_ [RDY_bF$buf5 _1260_ _1261_] _1262_ d_lut_OAI21X1
A_2127_ [_882__bF$buf2 _891_ RDY_bF$buf4] _1263_ d_lut_OAI21X1
A_2128_ [_875_ _867_ _882__bF$buf1] _1264_ d_lut_NOR3X1
A_2129_ [RDY_bF$buf3 _1264_ _1263_] _1265_ d_lut_OAI21X1
A_2130_ [_1265_ _1262_] _1266_ d_lut_NAND2X1
A_2131_ [_869__bF$buf1 _905_] _1267_ d_lut_NAND2X1
A_2132_ [CO backwards] _1268_ d_lut_XOR2X1
A_2133_ [RDY_bF$buf2 _1268_] _1269_ d_lut_NAND2X1
A_2134_ [_872_ _1269_ RDY_bF$buf1 _1267_] _1270_ d_lut_OAI22X1
A_2135_ [_1266_ _1270_ _1258_] _1271_ d_lut_NOR3X1
A_2136_ [_918__bF$buf3 _1032_ RDY_bF$buf0] _1272_ d_lut_OAI21X1
A_2137_ [RDY_bF$buf8 _878_ _1272_] _1273_ d_lut_OAI21X1
A_2138_ [_977_] _1274_ d_lut_INVX1
A_2139_ [_882__bF$buf0 _989_ RDY_bF$buf7] _1275_ d_lut_OAI21X1
A_2140_ [RDY_bF$buf6 _1274_ _1275_] _1276_ d_lut_OAI21X1
A_2141_ [_990_] _1277_ d_lut_INVX1
A_2142_ [_882__bF$buf3 _1032_ RDY_bF$buf5] _1278_ d_lut_OAI21X1
A_2143_ [RDY_bF$buf4 _1277_ _1278_] _1279_ d_lut_OAI21X1
A_2144_ [_1276_ _1273_ _1279_] _1280_ d_lut_NAND3X1
A_2145_ [_981_] _1281_ d_lut_INVX4
A_2146_ [_882__bF$buf2 _961_ _853__bF$buf4] _1282_ d_lut_OAI21X1
A_2147_ [_853__bF$buf3 _1281_ _1282_] _1283_ d_lut_OAI21X1
A_2148_ [_1051__bF$buf2] _1284_ d_lut_INVX2
A_2149_ [RDY_bF$buf3 _1284_] _1285_ d_lut_NAND2X1
A_2150_ [RDY_bF$buf2 _978_ _1285_] _1286_ d_lut_OAI21X1
A_2151_ [_887__bF$buf0 _961_] _1287_ d_lut_NOR2X1
A_2152_ [_853__bF$buf2 _1287_] _1288_ d_lut_NAND2X1
A_2153_ [_853__bF$buf1 _894_ _1288_] _1289_ d_lut_OAI21X1
A_2154_ [_1289_ _1286_] _1290_ d_lut_NOR2X1
A_2155_ [_1283_ _1290_] _1291_ d_lut_NAND2X1
A_2156_ [_1280_ _1291_] _1292_ d_lut_NOR2X1
A_2157_ [_1252_ _1292_ _1271_] _1293_ d_lut_NAND3X1
A_2158_ [_1293_ _1249_ _1213_] _1294_ d_lut_NOR3X1
A_2159_ [_1294_] _1483__0_ d_lut_INVX1
A_2160_ [_1150_] _1295_ d_lut_INVX1
A_2161_ [_1158_ _1152_ _1145_] _1296_ d_lut_OAI21X1
A_2162_ [_1145_ _1154_] _1297_ d_lut_NAND2X1
A_2163_ [_1297_ _1162_] _1298_ d_lut_NOR2X1
A_2164_ [_1296_ _1298_] _1299_ d_lut_NAND2X1
A_2165_ [_1299_ _1295_] _1300_ d_lut_NOR2X1
A_2166_ [_853__bF$buf0 _1281_ _1300_ _1129__bF$buf0] _1301_ d_lut_AOI22X1
A_2167_ [_894_] _1302_ d_lut_INVX1
A_2168_ [_1145_ _1161_] _1303_ d_lut_NAND2X1
A_2169_ [_1297_ _1303_] _1304_ d_lut_NOR2X1
A_2170_ [_1296_ _1304_] _1305_ d_lut_NAND2X1
A_2171_ [_1305_ _1295_] _1306_ d_lut_NOR2X1
A_2172_ [_853__bF$buf7 _1302_ _1306_ _1129__bF$buf4] _1307_ d_lut_AOI22X1
A_2173_ [_1307_ _1301_] _1308_ d_lut_NAND2X1
A_2174_ [_882__bF$buf1 _946_ _978_] _1309_ d_lut_OAI21X1
A_2175_ [RDY_bF$buf1 _1235_ _1188_] _1310_ d_lut_NAND3X1
A_2176_ [_1196_ _1310_] _1311_ d_lut_NOR2X1
A_2177_ [_1309_ _1311_] _1312_ d_lut_NAND2X1
A_2178_ [_853__bF$buf6 _926__bF$buf2 _890_] _1313_ d_lut_NAND3X1
A_2179_ [_1147_ _1145_] _1314_ d_lut_AND2X2
A_2180_ [_1171_ _1314_] _1315_ d_lut_NAND2X1
A_2181_ [_1139_ _1315_] _1316_ d_lut_NOR2X1
A_2182_ [_1164_ _1316_] _1317_ d_lut_NAND2X1
A_2183_ [_1317_ _1219__bF$buf1] _1318_ d_lut_OR2X2
A_2184_ [_1312_ _1313_ _1318_] _1319_ d_lut_NAND3X1
A_2185_ [_1296_] _1320_ d_lut_INVX1
A_2186_ [_1297_ _1320_] _1321_ d_lut_NOR2X1
A_2187_ [_1321_] _1322_ d_lut_INVX1
A_2188_ [_1139_ _1172_] _1323_ d_lut_NOR2X1
A_2189_ [_1129__bF$buf3 _1323_] _1324_ d_lut_NAND2X1
A_2190_ [RDY_bF$buf0 _934_ _1324_ _1322_] _1325_ d_lut_OAI22X1
A_2191_ [_1254_] _1326_ d_lut_INVX1
A_2192_ [state_4_ _989_] _1327_ d_lut_NOR2X1
A_2193_ [_942_ _1327_ RDY_bF$buf8] _1328_ d_lut_MUX2X1
A_2194_ [_1149_] _1329_ d_lut_INVX1
A_2195_ [_1175_ _1329_] _1330_ d_lut_NAND2X1