* XSpice netlist created from SPICE and liberty sources by spi2xspice.py
*SPICE netlist created from verilog structural netlist module apple_1_WozMon_PIA by vlog2Spice (qflow)
** Start of included library /usr/local/share/qflow/tech/etri050/etri050_stdcells.sp
* NGSPICE file created from khu_etri050_stdcells.ext - technology: scmos
** End of included library /usr/local/share/qflow/tech/etri050/etri050_stdcells.sp
.subckt apple_1_WozMon_PIA a_vdd a_gnd a_clk a_reset a_AB_0_ a_AB_1_ a_AB_2_ a_AB_3_ a_AB_4_ a_AB_5_ a_AB_6_ a_AB_7_ a_AB_8_ a_AB_9_ a_AB_10_ a_AB_11_ a_AB_12_ a_AB_13_ a_AB_14_ a_AB_15_ a_DI_0_ a_DI_1_ a_DI_2_ a_DI_3_ a_DI_4_ a_DI_5_ a_DI_6_ a_DI_7_ a_DO_0_ a_DO_1_ a_DO_2_ a_DO_3_ a_DO_4_ a_DO_5_ a_DO_6_ a_DO_7_ a_WE a_IRQ a_NMI a_RDY a_kbd_rdy a_kbd_ack a_kbd_data_0_ a_kbd_data_1_ a_kbd_data_2_ a_kbd_data_3_ a_kbd_data_4_ a_kbd_data_5_ a_kbd_data_6_ a_dsp_rdy a_dsp_ack a_dsp_data_0_ a_dsp_data_1_ a_dsp_data_2_ a_dsp_data_3_ a_dsp_data_4_ a_dsp_data_5_ a_dsp_data_6_
ABUFX2_insert167 [_1037_] _1037__bF$buf0 d_lut_BUFX2
ABUFX2_insert166 [_1037_] _1037__bF$buf1 d_lut_BUFX2
ABUFX2_insert165 [_1037_] _1037__bF$buf2 d_lut_BUFX2
ABUFX2_insert164 [_1037_] _1037__bF$buf3 d_lut_BUFX2
ABUFX2_insert163 [_1325_] _1325__bF$buf0 d_lut_BUFX2
ABUFX2_insert162 [_1325_] _1325__bF$buf1 d_lut_BUFX2
ABUFX2_insert161 [_1325_] _1325__bF$buf2 d_lut_BUFX2
ABUFX2_insert160 [_1325_] _1325__bF$buf3 d_lut_BUFX2
ABUFX2_insert159 [_1325_] _1325__bF$buf4 d_lut_BUFX2
ABUFX2_insert158 [_2354__2_] _2354__2_bF$buf0 d_lut_BUFX2
ABUFX2_insert157 [_2354__2_] _2354__2_bF$buf1 d_lut_BUFX2
ABUFX2_insert156 [_2354__2_] _2354__2_bF$buf2 d_lut_BUFX2
ABUFX2_insert155 [_2354__2_] _2354__2_bF$buf3 d_lut_BUFX2
ABUFX2_insert154 [_2354__2_] _2354__2_bF$buf4 d_lut_BUFX2
ABUFX2_insert153 [_2354__2_] _2354__2_bF$buf5 d_lut_BUFX2
ABUFX2_insert152 [_1328_] _1328__bF$buf0 d_lut_BUFX2
ABUFX2_insert151 [_1328_] _1328__bF$buf1 d_lut_BUFX2
ABUFX2_insert150 [_1328_] _1328__bF$buf2 d_lut_BUFX2
ABUFX2_insert149 [_1328_] _1328__bF$buf3 d_lut_BUFX2
ABUFX2_insert148 [_1328_] _1328__bF$buf4 d_lut_BUFX2
ABUFX2_insert147 [_1328_] _1328__bF$buf5 d_lut_BUFX2
ABUFX2_insert146 [_2354__5_] _2354__5_bF$buf0 d_lut_BUFX2
ABUFX2_insert145 [_2354__5_] _2354__5_bF$buf1 d_lut_BUFX2
ABUFX2_insert144 [_2354__5_] _2354__5_bF$buf2 d_lut_BUFX2
ABUFX2_insert143 [_2354__5_] _2354__5_bF$buf3 d_lut_BUFX2
ABUFX2_insert142 [_2354__5_] _2354__5_bF$buf4 d_lut_BUFX2
ABUFX2_insert141 [_1305_] _1305__bF$buf0 d_lut_BUFX2
ABUFX2_insert140 [_1305_] _1305__bF$buf1 d_lut_BUFX2
ABUFX2_insert139 [_1305_] _1305__bF$buf2 d_lut_BUFX2
ABUFX2_insert138 [_1305_] _1305__bF$buf3 d_lut_BUFX2
ABUFX2_insert137 [_1634_] _1634__bF$buf0 d_lut_BUFX2
ABUFX2_insert136 [_1634_] _1634__bF$buf1 d_lut_BUFX2
ABUFX2_insert135 [_1634_] _1634__bF$buf2 d_lut_BUFX2
ABUFX2_insert134 [_1634_] _1634__bF$buf3 d_lut_BUFX2
ABUFX2_insert133 [_1634_] _1634__bF$buf4 d_lut_BUFX2
ABUFX2_insert132 [_1634_] _1634__bF$buf5 d_lut_BUFX2
ABUFX2_insert131 [_1196_] _1196__bF$buf0 d_lut_BUFX2
ABUFX2_insert130 [_1196_] _1196__bF$buf1 d_lut_BUFX2
ABUFX2_insert129 [_1196_] _1196__bF$buf2 d_lut_BUFX2
ABUFX2_insert128 [_1196_] _1196__bF$buf3 d_lut_BUFX2
ABUFX2_insert127 [_1196_] _1196__bF$buf4 d_lut_BUFX2
ABUFX2_insert126 [_1196_] _1196__bF$buf5 d_lut_BUFX2
ABUFX2_insert125 [_1196_] _1196__bF$buf6 d_lut_BUFX2
ABUFX2_insert124 [_1196_] _1196__bF$buf7 d_lut_BUFX2
ABUFX2_insert123 [_1196_] _1196__bF$buf8 d_lut_BUFX2
ABUFX2_insert122 [_1070_] _1070__bF$buf0 d_lut_BUFX2
ABUFX2_insert121 [_1070_] _1070__bF$buf1 d_lut_BUFX2
ABUFX2_insert120 [_1070_] _1070__bF$buf2 d_lut_BUFX2
ABUFX2_insert119 [_1070_] _1070__bF$buf3 d_lut_BUFX2
ABUFX2_insert118 [_1681_] _1681__bF$buf0 d_lut_BUFX2
ABUFX2_insert117 [_1681_] _1681__bF$buf1 d_lut_BUFX2
ABUFX2_insert116 [_1681_] _1681__bF$buf2 d_lut_BUFX2
ABUFX2_insert115 [_1681_] _1681__bF$buf3 d_lut_BUFX2
ABUFX2_insert114 [_1643_] _1643__bF$buf0 d_lut_BUFX2
ABUFX2_insert113 [_1643_] _1643__bF$buf1 d_lut_BUFX2
ABUFX2_insert112 [_1643_] _1643__bF$buf2 d_lut_BUFX2
ABUFX2_insert111 [_1643_] _1643__bF$buf3 d_lut_BUFX2
ABUFX2_insert110 [_1643_] _1643__bF$buf4 d_lut_BUFX2
ABUFX2_insert109 [_1643_] _1643__bF$buf5 d_lut_BUFX2
ABUFX2_insert108 [_1129_] _1129__bF$buf0 d_lut_BUFX2
ABUFX2_insert107 [_1129_] _1129__bF$buf1 d_lut_BUFX2
ABUFX2_insert106 [_1129_] _1129__bF$buf2 d_lut_BUFX2
ABUFX2_insert105 [_1129_] _1129__bF$buf3 d_lut_BUFX2
ABUFX2_insert104 [_1129_] _1129__bF$buf4 d_lut_BUFX2
ABUFX2_insert103 [_1129_] _1129__bF$buf5 d_lut_BUFX2
ABUFX2_insert102 [_1417_] _1417__bF$buf0 d_lut_BUFX2
ABUFX2_insert101 [_1417_] _1417__bF$buf1 d_lut_BUFX2
ABUFX2_insert100 [_1417_] _1417__bF$buf2 d_lut_BUFX2
ABUFX2_insert99 [_1417_] _1417__bF$buf3 d_lut_BUFX2
ABUFX2_insert98 [_1417_] _1417__bF$buf4 d_lut_BUFX2
ABUFX2_insert97 [_1417_] _1417__bF$buf5 d_lut_BUFX2
ABUFX2_insert96 [_1417_] _1417__bF$buf6 d_lut_BUFX2
ABUFX2_insert95 [_1417_] _1417__bF$buf7 d_lut_BUFX2
ABUFX2_insert94 [_1417_] _1417__bF$buf8 d_lut_BUFX2
ABUFX2_insert93 [_1417_] _1417__bF$buf9 d_lut_BUFX2
ABUFX2_insert92 [_1417_] _1417__bF$buf10 d_lut_BUFX2
ABUFX2_insert91 [_2354__0_] _2354__0_bF$buf0 d_lut_BUFX2
ABUFX2_insert90 [_2354__0_] _2354__0_bF$buf1 d_lut_BUFX2
ABUFX2_insert89 [_2354__0_] _2354__0_bF$buf2 d_lut_BUFX2
ABUFX2_insert88 [_2354__0_] _2354__0_bF$buf3 d_lut_BUFX2
ABUFX2_insert87 [_2354__0_] _2354__0_bF$buf4 d_lut_BUFX2
ABUFX2_insert86 [_2354__0_] _2354__0_bF$buf5 d_lut_BUFX2
ABUFX2_insert85 [_2354__3_] _2354__3_bF$buf0 d_lut_BUFX2
ABUFX2_insert84 [_2354__3_] _2354__3_bF$buf1 d_lut_BUFX2
ABUFX2_insert83 [_2354__3_] _2354__3_bF$buf2 d_lut_BUFX2
ABUFX2_insert82 [_2354__3_] _2354__3_bF$buf3 d_lut_BUFX2
ABUFX2_insert81 [_2354__3_] _2354__3_bF$buf4 d_lut_BUFX2
ABUFX2_insert80 [_2354__3_] _2354__3_bF$buf5 d_lut_BUFX2
ABUFX2_insert79 [_2354__3_] _2354__3_bF$buf6 d_lut_BUFX2
ABUFX2_insert78 [_2354__6_] _2354__6_bF$buf0 d_lut_BUFX2
ABUFX2_insert77 [_2354__6_] _2354__6_bF$buf1 d_lut_BUFX2
ABUFX2_insert76 [_2354__6_] _2354__6_bF$buf2 d_lut_BUFX2
ABUFX2_insert75 [_2354__6_] _2354__6_bF$buf3 d_lut_BUFX2
ABUFX2_insert74 [_2354__6_] _2354__6_bF$buf4 d_lut_BUFX2
ABUFX2_insert73 [_1920_] _1920__bF$buf0 d_lut_BUFX2
ABUFX2_insert72 [_1920_] _1920__bF$buf1 d_lut_BUFX2
ABUFX2_insert71 [_1920_] _1920__bF$buf2 d_lut_BUFX2
ABUFX2_insert70 [_1920_] _1920__bF$buf3 d_lut_BUFX2
ABUFX2_insert69 [_1920_] _1920__bF$buf4 d_lut_BUFX2
ABUFX2_insert68 [_1635_] _1635__bF$buf0 d_lut_BUFX2
ABUFX2_insert67 [_1635_] _1635__bF$buf1 d_lut_BUFX2
ABUFX2_insert66 [_1635_] _1635__bF$buf2 d_lut_BUFX2
ABUFX2_insert65 [_1635_] _1635__bF$buf3 d_lut_BUFX2
ABUFX2_insert64 [_1635_] _1635__bF$buf4 d_lut_BUFX2
ABUFX2_insert63 [_1923_] _1923__bF$buf0 d_lut_BUFX2
ABUFX2_insert62 [_1923_] _1923__bF$buf1 d_lut_BUFX2
ABUFX2_insert61 [_1923_] _1923__bF$buf2 d_lut_BUFX2
ABUFX2_insert60 [_1923_] _1923__bF$buf3 d_lut_BUFX2
ABUFX2_insert59 [_1638_] _1638__bF$buf0 d_lut_BUFX2
ABUFX2_insert58 [_1638_] _1638__bF$buf1 d_lut_BUFX2
ABUFX2_insert57 [_1638_] _1638__bF$buf2 d_lut_BUFX2
ABUFX2_insert56 [_1638_] _1638__bF$buf3 d_lut_BUFX2
ABUFX2_insert55 [_1315_] _1315__bF$buf0 d_lut_BUFX2
ABUFX2_insert54 [_1315_] _1315__bF$buf1 d_lut_BUFX2
ABUFX2_insert53 [_1315_] _1315__bF$buf2 d_lut_BUFX2
ABUFX2_insert52 [_1315_] _1315__bF$buf3 d_lut_BUFX2
ABUFX2_insert51 [_2354__1_] _2354__1_bF$buf0 d_lut_BUFX2
ABUFX2_insert50 [_2354__1_] _2354__1_bF$buf1 d_lut_BUFX2
ABUFX2_insert49 [_2354__1_] _2354__1_bF$buf2 d_lut_BUFX2
ABUFX2_insert48 [_2354__1_] _2354__1_bF$buf3 d_lut_BUFX2
ABUFX2_insert47 [_2354__1_] _2354__1_bF$buf4 d_lut_BUFX2
ABUFX2_insert46 [_2354__1_] _2354__1_bF$buf5 d_lut_BUFX2
ABUFX2_insert45 [_2354__4_] _2354__4_bF$buf0 d_lut_BUFX2
ABUFX2_insert44 [_2354__4_] _2354__4_bF$buf1 d_lut_BUFX2
ABUFX2_insert43 [_2354__4_] _2354__4_bF$buf2 d_lut_BUFX2
ABUFX2_insert42 [_2354__4_] _2354__4_bF$buf3 d_lut_BUFX2
ABUFX2_insert41 [_2354__4_] _2354__4_bF$buf4 d_lut_BUFX2
ABUFX2_insert40 [_2354__4_] _2354__4_bF$buf5 d_lut_BUFX2
ABUFX2_insert39 [_2354__4_] _2354__4_bF$buf6 d_lut_BUFX2
ACLKBUF1_insert38 [clk] clk_bF$buf0 d_lut_CLKBUF1
ACLKBUF1_insert37 [clk] clk_bF$buf1 d_lut_CLKBUF1
ACLKBUF1_insert36 [clk] clk_bF$buf2 d_lut_CLKBUF1
ACLKBUF1_insert35 [clk] clk_bF$buf3 d_lut_CLKBUF1
ACLKBUF1_insert34 [clk] clk_bF$buf4 d_lut_CLKBUF1
ACLKBUF1_insert33 [clk] clk_bF$buf5 d_lut_CLKBUF1
ACLKBUF1_insert32 [clk] clk_bF$buf6 d_lut_CLKBUF1
ACLKBUF1_insert31 [clk] clk_bF$buf7 d_lut_CLKBUF1
ACLKBUF1_insert30 [clk] clk_bF$buf8 d_lut_CLKBUF1
ACLKBUF1_insert29 [clk] clk_bF$buf9 d_lut_CLKBUF1
ACLKBUF1_insert28 [clk] clk_bF$buf10 d_lut_CLKBUF1
ACLKBUF1_insert27 [clk] clk_bF$buf11 d_lut_CLKBUF1
ACLKBUF1_insert26 [clk] clk_bF$buf12 d_lut_CLKBUF1
ABUFX2_insert25 [_2354__7_] _2354__7_bF$buf0 d_lut_BUFX2
ABUFX2_insert24 [_2354__7_] _2354__7_bF$buf1 d_lut_BUFX2
ABUFX2_insert23 [_2354__7_] _2354__7_bF$buf2 d_lut_BUFX2
ABUFX2_insert22 [_2354__7_] _2354__7_bF$buf3 d_lut_BUFX2
ABUFX2_insert21 [RDY] RDY_bF$buf0 d_lut_BUFX2
ABUFX2_insert20 [RDY] RDY_bF$buf1 d_lut_BUFX2
ABUFX2_insert19 [RDY] RDY_bF$buf2 d_lut_BUFX2
ABUFX2_insert18 [RDY] RDY_bF$buf3 d_lut_BUFX2
ABUFX2_insert17 [RDY] RDY_bF$buf4 d_lut_BUFX2
ABUFX2_insert16 [RDY] RDY_bF$buf5 d_lut_BUFX2
ABUFX2_insert15 [RDY] RDY_bF$buf6 d_lut_BUFX2
ABUFX2_insert14 [RDY] RDY_bF$buf7 d_lut_BUFX2
ABUFX2_insert13 [_1345_] _1345__bF$buf0 d_lut_BUFX2
ABUFX2_insert12 [_1345_] _1345__bF$buf1 d_lut_BUFX2
ABUFX2_insert11 [_1345_] _1345__bF$buf2 d_lut_BUFX2
ABUFX2_insert10 [_1345_] _1345__bF$buf3 d_lut_BUFX2
ABUFX2_insert9 [_1636_] _1636__bF$buf0 d_lut_BUFX2
ABUFX2_insert8 [_1636_] _1636__bF$buf1 d_lut_BUFX2
ABUFX2_insert7 [_1636_] _1636__bF$buf2 d_lut_BUFX2
ABUFX2_insert6 [_1636_] _1636__bF$buf3 d_lut_BUFX2
ABUFX2_insert5 [_1636_] _1636__bF$buf4 d_lut_BUFX2
ABUFX2_insert4 [_800_] _800__bF$buf0 d_lut_BUFX2
ABUFX2_insert3 [_800_] _800__bF$buf1 d_lut_BUFX2
ABUFX2_insert2 [_800_] _800__bF$buf2 d_lut_BUFX2
ABUFX2_insert1 [_800_] _800__bF$buf3 d_lut_BUFX2
ABUFX2_insert0 [_800_] _800__bF$buf4 d_lut_BUFX2
A_2356_ [_2354__15_] AB_15_ d_lut_BUFX2
A_2357_ [_2354__14_] AB_14_ d_lut_BUFX2
A_2358_ [_2354__13_] AB_13_ d_lut_BUFX2
A_2359_ [_2354__12_] AB_12_ d_lut_BUFX2
A_2360_ [_2354__11_] AB_11_ d_lut_BUFX2
A_2361_ [_2354__10_] AB_10_ d_lut_BUFX2
A_2362_ [_2354__9_] AB_9_ d_lut_BUFX2
A_2363_ [_2354__8_] AB_8_ d_lut_BUFX2
A_2364_ [_2354__7_bF$buf3] AB_7_ d_lut_BUFX2
A_2365_ [_2354__6_bF$buf4] AB_6_ d_lut_BUFX2
A_2366_ [_2354__5_bF$buf4] AB_5_ d_lut_BUFX2
A_2367_ [_2354__4_bF$buf6] AB_4_ d_lut_BUFX2
A_2368_ [_2354__3_bF$buf6] AB_3_ d_lut_BUFX2
A_2369_ [_2354__2_bF$buf5] AB_2_ d_lut_BUFX2
A_2370_ [_2354__1_bF$buf5] AB_1_ d_lut_BUFX2
A_2371_ [_2354__0_bF$buf5] AB_0_ d_lut_BUFX2
A_2372_ [_2353__7_] DO_7_ d_lut_BUFX2
A_2373_ [_2353__6_] DO_6_ d_lut_BUFX2
A_2374_ [_2353__5_] DO_5_ d_lut_BUFX2
A_2375_ [_2353__4_] DO_4_ d_lut_BUFX2
A_2376_ [_2353__3_] DO_3_ d_lut_BUFX2
A_2377_ [_2353__2_] DO_2_ d_lut_BUFX2
A_2378_ [_2353__1_] DO_1_ d_lut_BUFX2
A_2379_ [_2353__0_] DO_0_ d_lut_BUFX2
A_2380_ [_2352_] WE d_lut_BUFX2
A_2381_ [_2351_] kbd_ack d_lut_BUFX2
A_2382_ [_2350_] dsp_rdy d_lut_BUFX2
A_2383_ [DO_dsp_6_] dsp_data_6_ d_lut_BUFX2
A_2384_ [DO_dsp_5_] dsp_data_5_ d_lut_BUFX2
A_2385_ [DO_dsp_4_] dsp_data_4_ d_lut_BUFX2
A_2386_ [DO_dsp_3_] dsp_data_3_ d_lut_BUFX2
A_2387_ [DO_dsp_2_] dsp_data_2_ d_lut_BUFX2
A_2388_ [DO_dsp_1_] dsp_data_1_ d_lut_BUFX2
A_2389_ [DO_dsp_0_] dsp_data_0_ d_lut_BUFX2
A_2390_ _2346__0_ clk_bF$buf12 NULL NULL DO_woz_0_ NULL ddflop
A_2391_ _2346__1_ clk_bF$buf11 NULL NULL DO_woz_1_ NULL ddflop
A_2392_ _2346__7_ clk_bF$buf10 NULL NULL DO_woz_7_ NULL ddflop
A_2393_ [_62_ _54_ _1427_ _70_] _2346__7_ d_lut_AOI22X1
A_2394_ [_1426_ _1421_ _1973_] _1427_ d_lut_AOI21X1
A_2395_ [_1425_ _1422_ _2354__6_bF$buf3] _1426_ d_lut_AOI21X1
A_2396_ [_1424_ _1423_] _1425_ d_lut_AND2X2
A_2397_ [_1660_ _2000_ _1654_ _2354__4_bF$buf5] _1424_ d_lut_AOI22X1
A_2398_ [_25_ _1634__bF$buf5 _1920__bF$buf4] _1423_ d_lut_AOI21X1
A_2399_ [_2119_ _2073_ _1929_] _1422_ d_lut_OAI21X1
A_2400_ [_1419_ _71_ _1420_] _1421_ d_lut_OAI21X1
A_2401_ [_1644_ _2281_ _2354__5_bF$buf3] _1420_ d_lut_AOI21X1
A_2402_ [_1643__bF$buf5 _2049_ _1634__bF$buf4] _1419_ d_lut_OAI21X1
A_2403_ [_2072_ _25_ _2354__3_bF$buf5] _71_ d_lut_AOI21X1
A_2404_ [_2354__6_bF$buf2 _66_ _69_] _70_ d_lut_NAND3X1
A_2405_ [_1920__bF$buf3 _2060_ _68_] _69_ d_lut_OAI21X1
A_2406_ [_67_ _2109_ _1956_] _68_ d_lut_AOI21X1
A_2407_ [_1935_ _1643__bF$buf4 _2354__5_bF$buf2] _67_ d_lut_AOI21X1
A_2408_ [_65_ _64_ _2354__4_bF$buf4] _66_ d_lut_OAI21X1
A_2409_ [_2028_ _2354__3_bF$buf4 _2330_] _65_ d_lut_AOI21X1
A_2410_ [_63_ _1642_ _1920__bF$buf2] _64_ d_lut_AOI21X1
A_2411_ [_1961_ _1663_ _1643__bF$buf3] _63_ d_lut_OAI21X1
A_2412_ [_61_ _1920__bF$buf1 _2354__7_bF$buf2] _62_ d_lut_AOI21X1
A_2413_ [_2354__6_bF$buf1 _60_ _57_ _58_] _61_ d_lut_AOI22X1
A_2414_ [_2354__0_bF$buf4 _1658_ _59_ _2086_] _60_ d_lut_OAI22X1
A_2415_ [_1638__bF$buf3 _2354__2_bF$buf4 _2000_] _59_ d_lut_OAI21X1
A_2416_ [_2018_ _2267_ _2354__6_bF$buf0] _58_ d_lut_AOI21X1
A_2417_ [_2003_ _56_ _1634__bF$buf3] _57_ d_lut_OAI21X1
A_2418_ [_2098_ _2037_ _1643__bF$buf2 _55_] _56_ d_lut_AOI22X1
A_2419_ [_1961_] _55_ d_lut_INVX1
A_2420_ [_2354__5_bF$buf1 _53_ _48_] _54_ d_lut_NAND3X1
A_2421_ [_2354__4_bF$buf3 _50_ _52_] _53_ d_lut_OAI21X1
A_2422_ [_51_ _13_ _1923__bF$buf3] _52_ d_lut_AOI21X1
A_2423_ [_1647_ _1636__bF$buf4 _1634__bF$buf2] _51_ d_lut_AOI21X1
A_2424_ [_2093_ _2054_ _49_ _2354__3_bF$buf3] _50_ d_lut_AOI22X1
A_2425_ [_1648_ _1649_] _49_ d_lut_AND2X2
A_2426_ [_2354__4_bF$buf2 _45_ _47_] _48_ d_lut_OAI21X1
A_2427_ [_46_ _2082_ _2354__6_bF$buf4] _47_ d_lut_AOI21X1
A_2428_ [_2301_] _46_ d_lut_INVX1
A_2429_ [_44_ _2354__3_bF$buf2 _3_] _45_ d_lut_AOI21X1
A_2430_ [_1649_ _1651_ _1637_] _44_ d_lut_OAI21X1
A_2431_ [_34_ _43_ _21_ _1973_] _2346__0_ d_lut_AOI22X1
A_2432_ [_42_ _39_ _1973_] _43_ d_lut_AOI21X1
A_2433_ [_41_ _2111_ _1923__bF$buf2] _42_ d_lut_AOI21X1
A_2434_ [_1954_ _40_ _1920__bF$buf0] _41_ d_lut_AOI21X1
A_2435_ [_1638__bF$buf2 _1636__bF$buf3 _1967_] _40_ d_lut_OAI21X1
A_2436_ [_2354__4_bF$buf1 _35_ _38_] _39_ d_lut_OAI21X1
A_2437_ [_1929_ _36_ _37_] _38_ d_lut_AOI21X1
A_2438_ [_1658_ _2037_ _1920__bF$buf4] _37_ d_lut_OAI21X1
A_2439_ [_1649_ _1651_] _36_ d_lut_NOR2X1
A_2440_ [_1673_ _1643__bF$buf1 _2051_] _35_ d_lut_AOI21X1
A_2441_ [_1923__bF$buf1 _28_ _33_] _34_ d_lut_NAND3X1
A_2442_ [_29_ _32_ _30_] _33_ d_lut_NAND3X1
A_2443_ [_31_] _32_ d_lut_INVX1
A_2444_ [_1920__bF$buf3 _2258_ _2308_] _31_ d_lut_NAND3X1
A_2445_ [_2095_ _2354__4_bF$buf0] _30_ d_lut_OR2X2
A_2446_ [_2156_ _2086_ _2000_] _29_ d_lut_OAI21X1
A_2447_ [_2354__4_bF$buf6 _24_ _27_] _28_ d_lut_OAI21X1
A_2448_ [_2074_ _2124_ _26_] _27_ d_lut_AOI21X1
A_2449_ [_2150_ _25_ _2354__5_bF$buf0] _26_ d_lut_OAI21X1
A_2450_ [_2354__2_bF$buf3 _1638__bF$buf1 _1635__bF$buf4] _25_ d_lut_OAI21X1
A_2451_ [_1643__bF$buf0 _22_ _23_] _24_ d_lut_OAI21X1
A_2452_ [_1643__bF$buf5 _1665_ _1648_] _23_ d_lut_NAND3X1
A_2453_ [_1958_ _2130_ _1652_] _22_ d_lut_OAI21X1
A_2454_ [_16_ _20_ _2354__6_bF$buf3 _11_] _21_ d_lut_OAI22X1
A_2455_ [_2354__6_bF$buf2 _19_] _20_ d_lut_NAND2X1
A_2456_ [_1975_ _17_ _18_] _19_ d_lut_OAI21X1
A_2457_ [_1959_ _2354__4_bF$buf5 _1920__bF$buf2] _18_ d_lut_AOI21X1
A_2458_ [_1938_ _2093_] _17_ d_lut_NOR2X1
A_2459_ [_15_ _12_ _2354__5_bF$buf4] _16_ d_lut_AOI21X1
A_2460_ [_14_ _1960_ _2354__4_bF$buf4 _1640_] _15_ d_lut_OAI22X1
A_2461_ [_2354__1_bF$buf4 _13_ _2354__4_bF$buf3] _14_ d_lut_OAI21X1
A_2462_ [_2354__0_bF$buf3 _2354__2_bF$buf2 _1643__bF$buf4] _13_ d_lut_OAI21X1
A_2463_ [_2086_ _2112_ _2000_] _12_ d_lut_OAI21X1
A_2464_ [_9_ _10_ _1920__bF$buf1 _6_] _11_ d_lut_AOI22X1
A_2465_ [_2119_ _1659_ _1920__bF$buf0] _10_ d_lut_AOI21X1
A_2466_ [_8_ _7_ _2129_] _9_ d_lut_OAI21X1
A_2467_ [_1653_ _1651_ _1634__bF$buf1] _8_ d_lut_OAI21X1
A_2468_ [_1664_ _1976_ _2354__3_bF$buf1] _7_ d_lut_AOI21X1
A_2469_ [_3_ _5_ _4_ _2_] _6_ d_lut_OAI22X1
A_2470_ [_1653_ _2028_ _2354__4_bF$buf2] _5_ d_lut_OAI21X1
A_2471_ [_2354__3_bF$buf0 _1924_ _1634__bF$buf0] _4_ d_lut_OAI21X1
A_2472_ [_2354__3_bF$buf6 _2354__0_bF$buf2 _1934_] _3_ d_lut_OAI21X1
A_2473_ [_2026_ _2028_] _2_ d_lut_NOR2X1
A_2474_ [_1_ _2340_ _2317_ _2329_] _2346__1_ d_lut_AOI22X1
A_2475_ [_2347_ _0_ _2354__7_bF$buf1] _1_ d_lut_AOI21X1
A_2476_ [_2355_ _2348_ _1923__bF$buf0] _0_ d_lut_AOI21X1
A_2477_ [_2349_ _1911_ _1920__bF$buf4] _2355_ d_lut_AOI21X1
A_2478_ [_1638__bF$buf0 _2081_ _1643__bF$buf3] _2349_ d_lut_OAI21X1
A_2479_ [_1663_ _1665_ _2286_] _2348_ d_lut_OAI21X1
A_2480_ [_2345_ _2343_ _1920__bF$buf3] _2347_ d_lut_OAI21X1
A_2481_ [_2344_ _1925_ _2354__4_bF$buf1] _2345_ d_lut_AOI21X1
A_2482_ [_1967_ _2354__2_bF$buf1 _2354__0_bF$buf1] _2344_ d_lut_AOI21X1
A_2483_ [_2342_ _2341_] _2343_ d_lut_AND2X2
A_2484_ [_1994_ _1995_ _2354__3_bF$buf5] _2342_ d_lut_OAI21X1
A_2485_ [_1661_ _1660_ _1658_] _2341_ d_lut_OAI21X1
A_2486_ [_2339_ _2334_] _2340_ d_lut_NAND2X1
A_2487_ [_2338_ _2337_ _2354__6_bF$buf1] _2339_ d_lut_AOI21X1
A_2488_ [_2295_ _1634__bF$buf5] _2338_ d_lut_AND2X2
A_2489_ [_2336_ _2335_] _2337_ d_lut_NAND2X1
A_2490_ [_2354__3_bF$buf4 _1928_ _2354__5_bF$buf3] _2336_ d_lut_OAI21X1
A_2491_ [_2053_ _1980_ _1920__bF$buf2] _2335_ d_lut_OAI21X1
A_2492_ [_2331_ _2333_ _2354__4_bF$buf0] _2334_ d_lut_OAI21X1
A_2493_ [_1643__bF$buf2 _1673_ _2332_] _2333_ d_lut_AOI21X1
A_2494_ [_1957_ _1958_ _2354__5_bF$buf2] _2332_ d_lut_OAI21X1
A_2495_ [_2330_ _2128_] _2331_ d_lut_NOR2X1
A_2496_ [_2354__3_bF$buf3 _2354__0_bF$buf0 _1920__bF$buf1] _2330_ d_lut_OAI21X1
A_2497_ [_2328_ _2321_ _1973_] _2329_ d_lut_AOI21X1
A_2498_ [_2327_ _2323_ _1923__bF$buf3] _2328_ d_lut_AOI21X1
A_2499_ [_1928_ _2077_ _2326_] _2327_ d_lut_AOI21X1
A_2500_ [_2324_ _2325_ _1920__bF$buf0] _2326_ d_lut_OAI21X1
A_2501_ [_1635__bF$buf3 _1636__bF$buf2 _2000_] _2325_ d_lut_OAI21X1
A_2502_ [_2354__1_bF$buf3 _2354__0_bF$buf5 _2354__2_bF$buf0] _2324_ d_lut_AOI21X1
A_2503_ [_1651_ _1652_ _2322_] _2323_ d_lut_OAI21X1
A_2504_ [_2002_ _2354__2_bF$buf5 _2150_] _2322_ d_lut_AOI21X1
A_2505_ [_2354__5_bF$buf1 _2320_ _2319_] _2321_ d_lut_NAND3X1
A_2506_ [_1915_ _1918_ _1662_] _2320_ d_lut_OAI21X1
A_2507_ [_2318_ _2025_ _1634__bF$buf4] _2319_ d_lut_OAI21X1
A_2508_ [_2354__0_bF$buf4 _1949_] _2318_ d_lut_NOR2X1
A_2509_ [_1923__bF$buf2 _2316_] _2317_ d_lut_NAND2X1
A_2510_ [_2315_ _2310_] _2316_ d_lut_NAND2X1
A_2511_ [_2354__5_bF$buf0 _2314_ _2312_] _2315_ d_lut_NAND3X1
A_2512_ [_2123_ _2065_ _2313_] _2314_ d_lut_OAI21X1
A_2513_ [_1994_ _1643__bF$buf1 _2354__4_bF$buf6] _2313_ d_lut_AOI21X1
A_2514_ [_2289_ _2311_ _1940_] _2312_ d_lut_NAND3X1
A_2515_ [_1635__bF$buf2 _1660_ _2034_] _2311_ d_lut_OAI21X1
A_2516_ [_2309_ _2305_ _1920__bF$buf4] _2310_ d_lut_OAI21X1
A_2517_ [_2306_ _2307_ _2308_] _2309_ d_lut_NAND3X1
A_2518_ [_2088_ _1929_ _1994_] _2308_ d_lut_NAND3X1
A_2519_ [_1649_ _1924_ _1659_] _2307_ d_lut_NAND3X1
A_2520_ [_1961_ _1647_ _2000_] _2306_ d_lut_OAI21X1
A_2521_ [_2354__4_bF$buf5 _2294_] _2305_ d_lut_NOR2X1
A_2522_ [_1973_ _2304_ _2274_ _2285_] _2346__2_ d_lut_OAI22X1
A_2523_ [_2303_ _2293_ _2354__5_bF$buf4] _2304_ d_lut_MUX2X1
A_2524_ [_2354__6_bF$buf0 _2297_ _2302_ _2300_] _2303_ d_lut_OAI22X1
A_2525_ [_2301_ _2110_ _2354__6_bF$buf4] _2302_ d_lut_OAI21X1
A_2526_ [_1935_ _1936_ _2354__4_bF$buf4] _2301_ d_lut_OAI21X1
A_2527_ [_2279_ _2299_] _2300_ d_lut_NAND2X1
A_2528_ [_1635__bF$buf1 _2298_ _1634__bF$buf3] _2299_ d_lut_OAI21X1
A_2529_ [_2060_] _2298_ d_lut_INVX1
A_2530_ [_2295_ _2296_ _1997_ _2294_] _2297_ d_lut_AOI22X1
A_2531_ [_2050_ _1643__bF$buf0 _2354__4_bF$buf3] _2296_ d_lut_AOI21X1
A_2532_ [_1635__bF$buf0 _1935_ _2098_] _2295_ d_lut_NAND3X1
A_2533_ [_1649_ _1651_ _2007_] _2294_ d_lut_OAI21X1
A_2534_ [_2288_ _2292_ _2354__6_bF$buf3] _2293_ d_lut_MUX2X1
A_2535_ [_2354__4_bF$buf2 _2290_ _2291_ _2289_] _2292_ d_lut_AOI22X1
A_2536_ [_1916_ _2254_] _2291_ d_lut_NOR2X1
A_2537_ [_1961_ _1949_ _1964_] _2290_ d_lut_OAI21X1
A_2538_ [_2354__2_bF$buf4 _1915_] _2289_ d_lut_NAND2X1
A_2539_ [_2286_ _1928_ _2287_] _2288_ d_lut_AOI21X1
A_2540_ [_2354__3_bF$buf2 _1917_ _2254_] _2287_ d_lut_AOI21X1
A_2541_ [_1634__bF$buf2 _2098_] _2286_ d_lut_NOR2X1
A_2542_ [_1920__bF$buf3 _2284_ _1973_] _2285_ d_lut_OAI21X1
A_2543_ [_2280_ _2283_ _2278_ _1923__bF$buf1] _2284_ d_lut_AOI22X1
A_2544_ [_2282_ _2281_ _1923__bF$buf0] _2283_ d_lut_AOI21X1
A_2545_ [_2354__3_bF$buf1 _1916_ _1944_] _2282_ d_lut_OAI21X1
A_2546_ [_2116_] _2281_ d_lut_INVX1
A_2547_ [_2279_ _1635__bF$buf4] _2280_ d_lut_OR2X2
A_2548_ [_2000_ _1663_] _2279_ d_lut_NAND2X1
A_2549_ [_2275_ _2276_ _2277_] _2278_ d_lut_OAI21X1
A_2550_ [_1659_ _2049_ _2010_ _1929_] _2277_ d_lut_AOI22X1
A_2551_ [_2354__2_bF$buf3 _2024_ _1634__bF$buf1] _2276_ d_lut_OAI21X1
A_2552_ [_2354__1_bF$buf2 _1935_ _1925_] _2275_ d_lut_AOI21X1
A_2553_ [_2273_ _2266_ _2354__5_bF$buf3] _2274_ d_lut_AOI21X1
A_2554_ [_2269_ _2272_] _2273_ d_lut_NAND2X1
A_2555_ [_1659_ _2270_ _2271_] _2272_ d_lut_AOI21X1
A_2556_ [_2150_ _1648_ _1923__bF$buf3] _2271_ d_lut_OAI21X1
A_2557_ [_1636__bF$buf1 _2001_ _1980_] _2270_ d_lut_OAI21X1
A_2558_ [_2268_ _1937_ _1634__bF$buf0] _2269_ d_lut_OAI21X1
A_2559_ [_2267_] _2268_ d_lut_INVX1
A_2560_ [_2354__3_bF$buf0 _1635__bF$buf3 _1641_] _2267_ d_lut_NAND3X1
A_2561_ [_2354__6_bF$buf2 _2265_] _2266_ d_lut_NAND2X1
A_2562_ [_2264_ _2158_] _2265_ d_lut_NAND2X1
A_2563_ [_2263_ _2019_] _2264_ d_lut_NAND2X1
A_2564_ [_1638__bF$buf3 _2354__3_bF$buf6 _2354__4_bF$buf1] _2263_ d_lut_AOI21X1
A_2565_ [_2155_ _2262_ _2127_ _2142_] _2346__3_ d_lut_AOI22X1
A_2566_ [_2261_ _2257_ _2354__5_bF$buf2] _2262_ d_lut_AOI21X1
A_2567_ [_2260_ _2258_ _1923__bF$buf2] _2261_ d_lut_AOI21X1
A_2568_ [_1954_ _2259_ _1973_] _2260_ d_lut_AOI21X1
A_2569_ [_1643__bF$buf5 _1928_ _1664_] _2259_ d_lut_NAND3X1
A_2570_ [_1651_ _1652_ _1659_] _2258_ d_lut_OAI21X1
A_2571_ [_2157_ _2158_ _2256_] _2257_ d_lut_OAI21X1
A_2572_ [_2255_ _2099_ _2354__7_bF$buf0] _2256_ d_lut_AOI21X1
A_2573_ [_2254_ _1995_] _2255_ d_lut_NOR2X1
A_2574_ [_2354__1_bF$buf1 _1638__bF$buf2 _1634__bF$buf5] _2254_ d_lut_OAI21X1
A_2575_ [_1643__bF$buf4 _1980_ _2354__4_bF$buf0] _2158_ d_lut_OAI21X1
A_2576_ [_2067_ _2156_] _2157_ d_lut_NOR2X1
A_2577_ [_2354__2_bF$buf2 _2001_] _2156_ d_lut_NOR2X1
A_2578_ [_2154_ _2148_ _1923__bF$buf1] _2155_ d_lut_OAI21X1
A_2579_ [_2153_ _1959_ _1973_] _2154_ d_lut_AOI21X1
A_2580_ [_2152_ _2149_ _2151_] _2153_ d_lut_OAI21X1
A_2581_ [_2354__2_bF$buf1 _1638__bF$buf1 _2354__4_bF$buf6] _2152_ d_lut_OAI21X1
A_2582_ [_2354__3_bF$buf5 _2002_ _2150_] _2151_ d_lut_OAI21X1
A_2583_ [_2354__4_bF$buf5 _1643__bF$buf3] _2150_ d_lut_NAND2X1
A_2584_ [_2354__1_bF$buf0 _1935_] _2149_ d_lut_NOR2X1
A_2585_ [_2147_ _2145_ _2354__7_bF$buf3] _2148_ d_lut_AOI21X1
A_2586_ [_2077_ _2146_] _2147_ d_lut_NOR2X1
A_2587_ [_2024_ _2130_] _2146_ d_lut_NOR2X1
A_2588_ [_2144_ _2143_ _1634__bF$buf4] _2145_ d_lut_OAI21X1
A_2589_ [_2354__2_bF$buf0 _2088_] _2144_ d_lut_NOR2X1
A_2590_ [_1957_ _1958_] _2143_ d_lut_NOR2X1
A_2591_ [_2141_ _2135_ _1920__bF$buf2] _2142_ d_lut_AOI21X1
A_2592_ [_2140_ _2137_ _2354__7_bF$buf2] _2141_ d_lut_AOI21X1
A_2593_ [_2139_ _2138_ _1923__bF$buf0] _2140_ d_lut_AOI21X1
A_2594_ [_1643__bF$buf2 _2130_ _1644_] _2139_ d_lut_OAI21X1
A_2595_ [_1634__bF$buf3 _1663_] _2138_ d_lut_NOR2X1
A_2596_ [_1634__bF$buf2 _2136_] _2137_ d_lut_NAND2X1
A_2597_ [_1994_ _1964_ _1925_] _2136_ d_lut_OAI21X1
A_2598_ [_1923__bF$buf3 _2134_ _2132_] _2135_ d_lut_NAND3X1
A_2599_ [_2354__1_bF$buf5 _1961_ _2133_] _2134_ d_lut_OAI21X1
A_2600_ [_2000_ _1641_] _2133_ d_lut_AND2X2
A_2601_ [_2354__4_bF$buf4 _2128_ _2129_ _2131_] _2132_ d_lut_OAI22X1
A_2602_ [_2043_ _2130_] _2131_ d_lut_NOR2X1
A_2603_ [_2354__0_bF$buf3 _1635__bF$buf2] _2130_ d_lut_NOR2X1
A_2604_ [_1647_ _1644_ _2354__4_bF$buf3] _2129_ d_lut_OAI21X1
A_2605_ [_2048_ _1938_] _2128_ d_lut_NOR2X1
A_2606_ [_2126_ _2115_] _2127_ d_lut_NAND2X1
A_2607_ [_2122_ _2125_ _1973_] _2126_ d_lut_AOI21X1
A_2608_ [_2123_ _1929_ _1924_ _2124_] _2125_ d_lut_AOI22X1
A_2609_ [_2060_ _1653_ _1634__bF$buf1] _2124_ d_lut_AOI21X1
A_2610_ [_2006_] _2123_ d_lut_INVX1
A_2611_ [_2120_ _2121_ _2117_] _2122_ d_lut_AOI21X1
A_2612_ [_1643__bF$buf1 _2354__0_bF$buf2 _2081_] _2121_ d_lut_OAI21X1
A_2613_ [_2354__4_bF$buf2 _2119_] _2120_ d_lut_NOR2X1
A_2614_ [_2354__1_bF$buf4 _2354__0_bF$buf1 _2118_] _2119_ d_lut_OAI21X1
A_2615_ [_2354__2_bF$buf5 _1635__bF$buf1] _2118_ d_lut_NAND2X1
A_2616_ [_2116_ _1934_ _1923__bF$buf2] _2117_ d_lut_OAI21X1
A_2617_ [_2354__0_bF$buf0 _2354__4_bF$buf1] _2116_ d_lut_NAND2X1
A_2618_ [_2354__6_bF$buf1 _2111_ _2114_] _2115_ d_lut_NAND3X1
A_2619_ [_1943_ _2113_ _1634__bF$buf0] _2114_ d_lut_OAI21X1
A_2620_ [_2354__3_bF$buf4 _1641_ _2112_] _2113_ d_lut_AOI21X1
A_2621_ [_1651_ _1652_] _2112_ d_lut_NOR2X1
A_2622_ [_2110_ _1937_ _2354__4_bF$buf0] _2111_ d_lut_OAI21X1
A_2623_ [_1916_ _2109_] _2110_ d_lut_NOR2X1
A_2624_ [_2354__3_bF$buf3 _2354__0_bF$buf5 _1944_] _2109_ d_lut_NAND3X1
A_2625_ [_2354__7_bF$buf1 _2080_ _2108_] _2346__4_ d_lut_OAI21X1
A_2626_ [_2354__7_bF$buf0 _2092_ _2107_] _2108_ d_lut_NAND3X1
A_2627_ [_1923__bF$buf1 _2106_ _2102_] _2107_ d_lut_NAND3X1
A_2628_ [_1920__bF$buf1 _2104_ _2105_] _2106_ d_lut_NAND3X1
A_2629_ [_1638__bF$buf0 _1949_ _1979_] _2105_ d_lut_OAI21X1
A_2630_ [_1647_ _2103_ _1634__bF$buf5] _2104_ d_lut_OAI21X1
A_2631_ [_2354__2_bF$buf4 _1643__bF$buf0 _1924_] _2103_ d_lut_OAI21X1
A_2632_ [_2101_ _2097_] _2102_ d_lut_NAND2X1
A_2633_ [_2100_ _2099_ _1920__bF$buf0] _2101_ d_lut_AOI21X1
A_2634_ [_2037_ _1963_ _2354__4_bF$buf6] _2100_ d_lut_AOI21X1
A_2635_ [_2354__1_bF$buf3 _2098_] _2099_ d_lut_NAND2X1
A_2636_ [_1636__bF$buf0 _2354__0_bF$buf4 _1643__bF$buf5] _2098_ d_lut_AOI21X1
A_2637_ [_2354__4_bF$buf5 _2095_ _2096_] _2097_ d_lut_NAND3X1
A_2638_ [_2054_ _2093_] _2096_ d_lut_NAND2X1
A_2639_ [_2094_ _2093_] _2095_ d_lut_NAND2X1
A_2640_ [_1653_ _1651_] _2094_ d_lut_NOR2X1
A_2641_ [_1961_ _1663_] _2093_ d_lut_NOR2X1
A_2642_ [_2354__6_bF$buf0 _2085_ _2091_] _2092_ d_lut_NAND3X1
A_2643_ [_2354__5_bF$buf1 _2087_ _2090_] _2091_ d_lut_NAND3X1
A_2644_ [_2089_ _2060_ _1992_] _2090_ d_lut_OAI21X1
A_2645_ [_2088_] _2089_ d_lut_INVX1
A_2646_ [_2354__0_bF$buf3 _1635__bF$buf0] _2088_ d_lut_NAND2X1
A_2647_ [_2354__3_bF$buf2 _2086_ _1940_] _2087_ d_lut_OAI21X1
A_2648_ [_2002_ _1924_ _1636__bF$buf4] _2086_ d_lut_AOI21X1
A_2649_ [_1920__bF$buf4 _2084_ _2083_] _2085_ d_lut_NAND3X1
A_2650_ [_2354__0_bF$buf2 _1928_ _2354__4_bF$buf4] _2084_ d_lut_OAI21X1
A_2651_ [_1634__bF$buf4 _2082_] _2083_ d_lut_NAND2X1
A_2652_ [_2354__3_bF$buf1 _2081_ _2026_] _2082_ d_lut_OAI21X1
A_2653_ [_2354__2_bF$buf3 _1635__bF$buf4] _2081_ d_lut_NOR2X1
A_2654_ [_2071_ _2079_ _2057_ _2064_] _2080_ d_lut_AOI22X1
A_2655_ [_2076_ _2078_ _1923__bF$buf0] _2079_ d_lut_AOI21X1
A_2656_ [_1918_ _2077_ _1920__bF$buf3] _2078_ d_lut_AOI21X1
A_2657_ [_1634__bF$buf3 _1653_] _2077_ d_lut_NOR2X1
A_2658_ [_2354__3_bF$buf0 _2073_ _2075_] _2076_ d_lut_OAI21X1
A_2659_ [_2074_ _2034_ _2354__4_bF$buf3] _2075_ d_lut_AOI21X1
A_2660_ [_1636__bF$buf3 _1651_] _2074_ d_lut_NAND2X1
A_2661_ [_2072_] _2073_ d_lut_INVX1
A_2662_ [_1917_ _1651_ _1641_] _2072_ d_lut_OAI21X1
A_2663_ [_1920__bF$buf2 _2070_] _2071_ d_lut_NAND2X1
A_2664_ [_2069_ _2066_ _2068_] _2070_ d_lut_OAI21X1
A_2665_ [_1935_ _1936_ _1634__bF$buf2] _2069_ d_lut_OAI21X1
A_2666_ [_2354__4_bF$buf2 _2067_ _2035_] _2068_ d_lut_NAND3X1
A_2667_ [_2354__1_bF$buf2 _1961_ _1643__bF$buf4] _2067_ d_lut_OAI21X1
A_2668_ [_2065_] _2066_ d_lut_INVX1
A_2669_ [_2354__2_bF$buf2 _1924_ _2020_] _2065_ d_lut_OAI21X1
A_2670_ [_2062_ _2063_ _2354__6_bF$buf4] _2064_ d_lut_AOI21X1
A_2671_ [_1929_ _1665_ _2354__5_bF$buf0] _2063_ d_lut_AOI21X1
A_2672_ [_1634__bF$buf1 _2058_ _2059_ _2061_] _2062_ d_lut_OAI22X1
A_2673_ [_1635__bF$buf3 _2060_ _2010_] _2061_ d_lut_OAI21X1
A_2674_ [_2354__3_bF$buf6 _1636__bF$buf2] _2060_ d_lut_NAND2X1
A_2675_ [_2354__3_bF$buf5 _1637_ _1634__bF$buf0] _2059_ d_lut_OAI21X1
A_2676_ [_1637_ _1909_ _1639_] _2058_ d_lut_AOI21X1
A_2677_ [_2052_ _2056_] _2057_ d_lut_NAND2X1
A_2678_ [_2055_ _1655_ _1920__bF$buf1] _2056_ d_lut_AOI21X1
A_2679_ [_2054_ _1909_ _1634__bF$buf5] _2055_ d_lut_AOI21X1
A_2680_ [_2053_] _2054_ d_lut_INVX1
A_2681_ [_2354__1_bF$buf1 _2354__2_bF$buf1 _1643__bF$buf3] _2053_ d_lut_OAI21X1
A_2682_ [_1991_ _2051_ _1634__bF$buf4] _2052_ d_lut_OAI21X1
A_2683_ [_2049_ _2050_ _1643__bF$buf2] _2051_ d_lut_AOI21X1
A_2684_ [_2354__1_bF$buf0 _2354__2_bF$buf0 _2354__0_bF$buf1] _2050_ d_lut_OAI21X1
A_2685_ [_2048_] _2049_ d_lut_INVX1
A_2686_ [_2354__1_bF$buf5 _2354__2_bF$buf5 _2354__0_bF$buf0] _2048_ d_lut_AOI21X1
A_2687_ [_2047_ _2032_ _2014_] _2346__5_ d_lut_OAI21X1
A_2688_ [_2046_ _2040_ _2354__7_bF$buf3] _2047_ d_lut_OAI21X1
A_2689_ [_2045_ _2041_ _2354__6_bF$buf3] _2046_ d_lut_OAI21X1
A_2690_ [_2044_ _2042_ _2354__5_bF$buf4] _2045_ d_lut_OAI21X1
A_2691_ [_2043_ _1660_ _1634__bF$buf3] _2044_ d_lut_OAI21X1
A_2692_ [_2354__2_bF$buf4 _1638__bF$buf3 _2354__3_bF$buf4] _2043_ d_lut_OAI21X1
A_2693_ [_1636__bF$buf1 _1647_ _1964_] _2042_ d_lut_AOI21X1
A_2694_ [_1940_ _1987_] _2041_ d_lut_AND2X2
A_2695_ [_2036_ _2039_ _2354__5_bF$buf3] _2040_ d_lut_AOI21X1
A_2696_ [_2354__4_bF$buf1 _2038_] _2039_ d_lut_NAND2X1
A_2697_ [_2354__0_bF$buf5 _2037_ _1644_] _2038_ d_lut_OAI21X1
A_2698_ [_1635__bF$buf2 _1636__bF$buf0] _2037_ d_lut_NAND2X1
A_2699_ [_2035_ _2033_] _2036_ d_lut_NAND2X1
A_2700_ [_1652_ _1935_ _2034_] _2035_ d_lut_NAND3X1
A_2701_ [_1635__bF$buf1 _2354__2_bF$buf3 _1643__bF$buf1] _2034_ d_lut_AOI21X1
A_2702_ [_1918_ _1915_ _2354__4_bF$buf0] _2033_ d_lut_AOI21X1
A_2703_ [_2354__6_bF$buf2 _2023_ _2031_] _2032_ d_lut_NOR3X1
A_2704_ [_1920__bF$buf0 _2030_] _2031_ d_lut_NOR2X1
A_2705_ [_2027_ _2025_ _2029_] _2030_ d_lut_OAI21X1
A_2706_ [_1929_ _2028_] _2029_ d_lut_NAND2X1
A_2707_ [_2354__2_bF$buf2 _1924_] _2028_ d_lut_NOR2X1
A_2708_ [_1634__bF$buf2 _2026_] _2027_ d_lut_NAND2X1
A_2709_ [_2354__0_bF$buf4 _1944_ _2354__3_bF$buf3] _2026_ d_lut_OAI21X1
A_2710_ [_1637_ _1909_ _2024_] _2025_ d_lut_AOI21X1
A_2711_ [_2354__1_bF$buf4 _1638__bF$buf2 _1643__bF$buf0] _2024_ d_lut_OAI21X1
A_2712_ [_2017_ _2022_ _2354__5_bF$buf2] _2023_ d_lut_AOI21X1
A_2713_ [_2019_ _2018_ _2021_] _2022_ d_lut_NAND3X1
A_2714_ [_1663_ _1961_ _2020_] _2021_ d_lut_OAI21X1
A_2715_ [_1653_] _2020_ d_lut_INVX1