*SPICE netlist created from verilog structural netlist module ALU_wrapper by vlog2Spice (qflow)
*This file may contain array delimiters, not for use in simulation.


.subckt ALU_wrapper VDD GND ABCmd_i[0] ABCmd_i[1] ABCmd_i[2] ABCmd_i[3] ABCmd_i[4]
+ ABCmd_i[5] ABCmd_i[6] ABCmd_i[7] ACC_o[0] ACC_o[1] ACC_o[2] ACC_o[3] ACC_o[4]
+ ACC_o[5] ACC_o[6] ACC_o[7] Done_o LoadA_i LoadB_i LoadCmd_i clk
+ reset 

XBUFX2_insert32 GND VDD ABCmd_i[2] ABCmd_i_2_bF$buf0 BUFX2
XBUFX2_insert31 GND VDD ABCmd_i[2] ABCmd_i_2_bF$buf1 BUFX2
XBUFX2_insert30 GND VDD ABCmd_i[2] ABCmd_i_2_bF$buf2 BUFX2
XBUFX2_insert29 GND VDD ABCmd_i[2] ABCmd_i_2_bF$buf3 BUFX2
XBUFX2_insert28 GND VDD BI[1] BI_1_bF$buf0 BUFX2
XBUFX2_insert27 GND VDD BI[1] BI_1_bF$buf1 BUFX2
XBUFX2_insert26 GND VDD BI[1] BI_1_bF$buf2 BUFX2
XBUFX2_insert25 GND VDD BI[1] BI_1_bF$buf3 BUFX2
XBUFX2_insert24 GND VDD BI[4] BI_4_bF$buf0 BUFX2
XBUFX2_insert23 GND VDD BI[4] BI_4_bF$buf1 BUFX2
XBUFX2_insert22 GND VDD BI[4] BI_4_bF$buf2 BUFX2
XBUFX2_insert21 GND VDD BI[4] BI_4_bF$buf3 BUFX2
XBUFX2_insert20 GND VDD _32_ _32__bF$buf0 BUFX2
XBUFX2_insert19 GND VDD _32_ _32__bF$buf1 BUFX2
XBUFX2_insert18 GND VDD _32_ _32__bF$buf2 BUFX2
XBUFX2_insert17 GND VDD _32_ _32__bF$buf3 BUFX2
XCLKBUF1_insert16 GND VDD clk clk_bF$buf0 CLKBUF1
XCLKBUF1_insert15 GND VDD clk clk_bF$buf1 CLKBUF1
XCLKBUF1_insert14 GND VDD clk clk_bF$buf2 CLKBUF1
XCLKBUF1_insert13 GND VDD clk clk_bF$buf3 CLKBUF1
XCLKBUF1_insert12 GND VDD clk clk_bF$buf4 CLKBUF1
XBUFX2_insert11 GND VDD _723_ _723__bF$buf0 BUFX2
XBUFX2_insert10 GND VDD _723_ _723__bF$buf1 BUFX2
XBUFX2_insert9 GND VDD _723_ _723__bF$buf2 BUFX2
XBUFX2_insert8 GND VDD _723_ _723__bF$buf3 BUFX2
XBUFX2_insert7 GND VDD BI[0] BI_0_bF$buf0 BUFX2
XBUFX2_insert6 GND VDD BI[0] BI_0_bF$buf1 BUFX2
XBUFX2_insert5 GND VDD BI[0] BI_0_bF$buf2 BUFX2
XBUFX2_insert4 GND VDD BI[0] BI_0_bF$buf3 BUFX2
XBUFX2_insert3 GND VDD BI[3] BI_3_bF$buf0 BUFX2
XBUFX2_insert2 GND VDD BI[3] BI_3_bF$buf1 BUFX2
XBUFX2_insert1 GND VDD BI[3] BI_3_bF$buf2 BUFX2
XBUFX2_insert0 GND VDD BI[3] BI_3_bF$buf3 BUFX2
X_1000_ GND VDD BI[2] AI[2] _68_ NAND2X1
X_1001_ GND VDD _68_ _69_ INVX1
X_1002_ GND VDD BI_1_bF$buf3 AI[4] _70_ NAND2X1
X_1003_ GND VDD _63_ _70_ _71_ OR2X2
X_1004_ GND VDD BI_0_bF$buf3 AI[4] BI_1_bF$buf2 AI[3] 
+ _72_
+ AOI22X1
X_1005_ GND VDD _72_ _73_ INVX1
X_1006_ GND VDD _73_ _69_ _71_ _74_ NAND3X1
X_1007_ GND VDD _63_ _70_ _75_ NOR2X1
X_1008_ GND VDD _72_ _75_ _68_ _76_ OAI21X1
X_1009_ GND VDD _76_ _67_ _74_ _77_ NAND3X1
X_1010_ GND VDD _59_ _78_ INVX1
X_1011_ GND VDD BI_4_bF$buf3 AI[1] _79_ NAND2X1
X_1012_ GND VDD BI_4_bF$buf2 _80_ INVX2
X_1013_ GND VDD BI_3_bF$buf3 AI[1] _81_ NAND2X1
X_1014_ GND VDD _57_ _80_ _81_ _82_ OAI21X1
X_1015_ GND VDD _79_ _78_ _82_ _83_ OAI21X1
X_1016_ GND VDD _74_ _76_ _67_ _84_ AOI21X1
X_1017_ GND VDD _83_ _84_ _77_ _85_ OAI21X1
X_1018_ GND VDD _68_ _72_ _71_ _86_ OAI21X1
X_1019_ GND VDD BI_0_bF$buf2 AI[5] _87_ AND2X2
X_1020_ GND VDD BI_1_bF$buf1 AI[4] _87_ _88_ NAND3X1
X_1021_ GND VDD BI_0_bF$buf1 AI[5] BI_1_bF$buf0 AI[4] 
+ _89_
+ AOI22X1
X_1022_ GND VDD _89_ _90_ INVX1
X_1023_ GND VDD BI[2] AI[3] _91_ NAND2X1
X_1024_ GND VDD _91_ _92_ INVX1
X_1025_ GND VDD _90_ _92_ _88_ _93_ NAND3X1
X_1026_ GND VDD BI_0_bF$buf0 AI[5] _94_ NAND2X1
X_1027_ GND VDD _70_ _94_ _95_ NOR2X1
X_1028_ GND VDD _89_ _95_ _91_ _96_ OAI21X1
X_1029_ GND VDD _93_ _96_ _86_ _97_ NAND3X1
X_1030_ GND VDD _69_ _73_ _75_ _98_ AOI21X1
X_1031_ GND VDD _89_ _95_ _92_ _99_ OAI21X1
X_1032_ GND VDD _90_ _91_ _88_ _100_ NAND3X1
X_1033_ GND VDD _100_ _99_ _98_ _101_ NAND3X1
X_1034_ GND VDD AI[0] BI[5] _102_ NAND2X1
X_1035_ GND VDD _102_ _103_ INVX1
X_1036_ GND VDD BI_3_bF$buf2 AI[2] _104_ AND2X2
X_1037_ GND VDD _60_ _104_ _105_ NAND2X1
X_1038_ GND VDD AI[2] _106_ INVX1
X_1039_ GND VDD _58_ _106_ _79_ _107_ OAI21X1
X_1040_ GND VDD _107_ _103_ _105_ _108_ NAND3X1
X_1041_ GND VDD _58_ _106_ _60_ _109_ OAI21X1
X_1042_ GND VDD AI[1] _110_ INVX1
X_1043_ GND VDD _80_ _110_ _104_ _111_ OAI21X1
X_1044_ GND VDD _102_ _109_ _111_ _112_ NAND3X1
X_1045_ GND VDD _112_ _108_ _113_ AND2X2
X_1046_ GND VDD _97_ _101_ _113_ _114_ NAND3X1
X_1047_ GND VDD _99_ _100_ _98_ _115_ AOI21X1
X_1048_ GND VDD _96_ _93_ _86_ _116_ AOI21X1
X_1049_ GND VDD _108_ _112_ _117_ NAND2X1
X_1050_ GND VDD _115_ _116_ _117_ _118_ OAI21X1
X_1051_ GND VDD _114_ _118_ _85_ _119_ NAND3X1
X_1052_ GND VDD _118_ _114_ _85_ _120_ AOI21X1
X_1053_ GND VDD _61_ _120_ _119_ _121_ OAI21X1
X_1054_ GND VDD _101_ _113_ _115_ _122_ AOI21X1
X_1055_ GND VDD _89_ _91_ _88_ _123_ OAI21X1
X_1056_ GND VDD BI_1_bF$buf3 AI[6] _124_ AND2X2
X_1057_ GND VDD _87_ _124_ _125_ NAND2X1
X_1058_ GND VDD BI_1_bF$buf2 _126_ INVX1
X_1059_ GND VDD AI[5] _127_ INVX2
X_1060_ GND VDD BI_0_bF$buf3 AI[6] _128_ NAND2X1
X_1061_ GND VDD _126_ _127_ _128_ _129_ OAI21X1
X_1062_ GND VDD BI[2] AI[4] _130_ NAND2X1
X_1063_ GND VDD _130_ _131_ INVX1
X_1064_ GND VDD _129_ _131_ _125_ _132_ NAND3X1
X_1065_ GND VDD BI_1_bF$buf1 AI[6] _133_ NAND2X1
X_1066_ GND VDD _94_ _133_ _134_ NOR2X1
X_1067_ GND VDD BI_0_bF$buf2 AI[6] BI_1_bF$buf0 AI[5] 
+ _135_
+ AOI22X1
X_1068_ GND VDD _135_ _134_ _130_ _136_ OAI21X1
X_1069_ GND VDD _136_ _132_ _123_ _137_ AOI21X1
X_1070_ GND VDD _90_ _92_ _95_ _138_ AOI21X1
X_1071_ GND VDD _135_ _134_ _131_ _139_ OAI21X1
X_1072_ GND VDD _129_ _130_ _125_ _140_ NAND3X1
X_1073_ GND VDD _139_ _140_ _138_ _141_ AOI21X1
X_1074_ GND VDD BI[5] AI[1] _142_ NAND2X1
X_1075_ GND VDD _142_ _143_ INVX1
X_1076_ GND VDD BI_4_bF$buf1 AI[2] _144_ AND2X2
X_1077_ GND VDD BI_3_bF$buf1 AI[3] _145_ AND2X2
X_1078_ GND VDD _144_ _145_ _146_ NAND2X1
X_1079_ GND VDD AI[3] _147_ INVX2
X_1080_ GND VDD BI_4_bF$buf0 AI[2] _148_ NAND2X1
X_1081_ GND VDD _58_ _147_ _148_ _149_ OAI21X1
X_1082_ GND VDD _149_ _143_ _146_ _150_ NAND3X1
X_1083_ GND VDD _58_ _147_ _144_ _151_ OAI21X1
X_1084_ GND VDD _80_ _106_ _145_ _152_ OAI21X1
X_1085_ GND VDD _142_ _151_ _152_ _153_ NAND3X1
X_1086_ GND VDD _153_ _150_ _154_ AND2X2
X_1087_ GND VDD _137_ _141_ _154_ _155_ OAI21X1
X_1088_ GND VDD _140_ _139_ _138_ _156_ NAND3X1
X_1089_ GND VDD _123_ _132_ _136_ _157_ NAND3X1
X_1090_ GND VDD _150_ _153_ _158_ NAND2X1
X_1091_ GND VDD _158_ _157_ _156_ _159_ NAND3X1
X_1092_ GND VDD _159_ _122_ _155_ _160_ NAND3X1
X_1093_ GND VDD _117_ _116_ _97_ _161_ OAI21X1
X_1094_ GND VDD _157_ _156_ _154_ _162_ NAND3X1
X_1095_ GND VDD _137_ _141_ _158_ _163_ OAI21X1
X_1096_ GND VDD _162_ _163_ _161_ _164_ NAND3X1
X_1097_ GND VDD BI[6] _165_ INVX4
X_1098_ GND VDD _57_ _165_ _166_ NOR2X1
X_1099_ GND VDD _81_ _148_ _108_ _167_ OAI21X1
X_1100_ GND VDD _166_ _167_ _168_ NAND2X1
X_1101_ GND VDD _167_ _166_ _169_ OR2X2
X_1102_ GND VDD _169_ _168_ _170_ AND2X2
X_1103_ GND VDD _160_ _164_ _170_ _171_ NAND3X1
X_1104_ GND VDD _163_ _162_ _161_ _172_ AOI21X1
X_1105_ GND VDD _155_ _159_ _122_ _173_ AOI21X1
X_1106_ GND VDD _168_ _169_ _174_ NAND2X1
X_1107_ GND VDD _173_ _172_ _174_ _175_ OAI21X1
X_1108_ GND VDD _171_ _175_ _121_ _176_ NAND3X1
X_1109_ GND VDD _168_ _177_ INVX1
X_1110_ GND VDD _174_ _172_ _164_ _178_ OAI21X1
X_1111_ GND VDD _156_ _154_ _141_ _179_ AOI21X1
X_1112_ GND VDD _135_ _130_ _125_ _180_ OAI21X1
X_1113_ GND VDD BI_0_bF$buf1 \u_ALU8.AI7\ _124_ _181_ NAND3X1
X_1114_ GND VDD BI_0_bF$buf0 \u_ALU8.AI7\ BI_1_bF$buf3 AI[6] 
+ _182_
+ AOI22X1
X_1115_ GND VDD _182_ _183_ INVX1
X_1116_ GND VDD BI[2] AI[5] _184_ NAND2X1
X_1117_ GND VDD _184_ _185_ INVX1
X_1118_ GND VDD _183_ _185_ _181_ _186_ NAND3X1
X_1119_ GND VDD BI_1_bF$buf2 \u_ALU8.AI7\ _187_ NAND2X1
X_1120_ GND VDD _128_ _187_ _188_ NOR2X1
X_1121_ GND VDD _182_ _188_ _184_ _189_ OAI21X1
X_1122_ GND VDD _189_ _186_ _180_ _190_ AOI21X1
X_1123_ GND VDD _182_ _188_ _185_ _191_ OAI21X1
X_1124_ GND VDD _183_ _184_ _181_ _192_ NAND3X1
X_1125_ GND VDD _125_ _132_ _191_ _192_ 
+ _193_
+ AOI22X1
X_1126_ GND VDD BI[5] AI[2] _194_ NAND2X1
X_1127_ GND VDD _194_ _195_ INVX1
X_1128_ GND VDD BI_4_bF$buf3 AI[3] _196_ AND2X2
X_1129_ GND VDD BI_3_bF$buf0 AI[4] _197_ AND2X2
X_1130_ GND VDD _196_ _197_ _198_ NAND2X1
X_1131_ GND VDD BI_3_bF$buf3 AI[4] BI_4_bF$buf2 AI[3] 
+ _199_
+ AOI22X1
X_1132_ GND VDD _199_ _200_ INVX1
X_1133_ GND VDD _195_ _200_ _198_ _201_ NAND3X1
X_1134_ GND VDD AI[4] _202_ INVX1
X_1135_ GND VDD _58_ _202_ _196_ _203_ OAI21X1
X_1136_ GND VDD _80_ _147_ _197_ _204_ OAI21X1
X_1137_ GND VDD _194_ _203_ _204_ _205_ NAND3X1
X_1138_ GND VDD _205_ _201_ _206_ AND2X2
X_1139_ GND VDD _193_ _190_ _206_ _207_ OAI21X1
X_1140_ GND VDD _129_ _131_ _134_ _208_ AOI21X1
X_1141_ GND VDD _192_ _191_ _208_ _209_ NAND3X1
X_1142_ GND VDD _180_ _186_ _189_ _210_ NAND3X1
X_1143_ GND VDD _201_ _205_ _211_ NAND2X1
X_1144_ GND VDD _211_ _210_ _209_ _212_ NAND3X1
X_1145_ GND VDD _212_ _207_ _179_ _213_ NAND3X1
X_1146_ GND VDD _158_ _137_ _157_ _214_ OAI21X1
X_1147_ GND VDD _210_ _209_ _206_ _215_ NAND3X1
X_1148_ GND VDD _193_ _190_ _211_ _216_ OAI21X1
X_1149_ GND VDD _215_ _214_ _216_ _217_ NAND3X1
X_1150_ GND VDD AI[0] BI[7] _218_ NAND2X1
X_1151_ GND VDD _218_ _219_ INVX1
X_1152_ GND VDD _104_ _196_ _149_ _143_ 
+ _220_
+ AOI22X1
X_1153_ GND VDD _220_ _221_ INVX1
X_1154_ GND VDD _165_ _110_ _221_ _222_ OAI21X1
X_1155_ GND VDD _165_ _110_ _223_ NOR2X1
X_1156_ GND VDD _223_ _220_ _224_ NAND2X1
X_1157_ GND VDD _219_ _224_ _222_ _225_ NAND3X1
X_1158_ GND VDD _223_ _221_ _226_ NAND2X1
X_1159_ GND VDD _165_ _110_ _220_ _227_ OAI21X1
X_1160_ GND VDD _218_ _227_ _226_ _228_ NAND3X1
X_1161_ GND VDD _228_ _225_ _229_ NAND2X1
X_1162_ GND VDD _229_ _213_ _217_ _230_ NAND3X1
X_1163_ GND VDD _216_ _215_ _214_ _231_ AOI21X1
X_1164_ GND VDD _207_ _212_ _179_ _232_ AOI21X1
X_1165_ GND VDD _219_ _227_ _226_ _233_ NAND3X1
X_1166_ GND VDD _218_ _224_ _222_ _234_ NAND3X1
X_1167_ GND VDD _233_ _234_ _235_ NAND2X1
X_1168_ GND VDD _231_ _232_ _235_ _236_ OAI21X1
X_1169_ GND VDD _236_ _230_ _178_ _237_ AOI21X1
X_1170_ GND VDD _160_ _170_ _173_ _238_ AOI21X1
X_1171_ GND VDD _231_ _232_ _229_ _239_ OAI21X1
X_1172_ GND VDD _235_ _213_ _217_ _240_ NAND3X1
X_1173_ GND VDD _239_ _240_ _238_ _241_ AOI21X1
X_1174_ GND VDD _241_ _237_ _177_ _242_ OAI21X1
X_1175_ GND VDD _240_ _239_ _238_ _243_ NAND3X1
X_1176_ GND VDD _230_ _236_ _178_ _244_ NAND3X1
X_1177_ GND VDD _168_ _243_ _244_ _245_ NAND3X1
X_1178_ GND VDD _242_ _245_ _176_ _246_ AOI21X1
X_1179_ GND VDD _246_ _247_ INVX1
X_1180_ GND VDD _61_ _248_ INVX1
X_1181_ GND VDD _62_ _63_ _249_ NOR2X1
X_1182_ GND VDD _65_ _250_ INVX1
X_1183_ GND VDD BI_0_bF$buf3 _251_ INVX1
X_1184_ GND VDD _251_ _147_ _62_ _252_ OAI21X1
X_1185_ GND VDD _250_ _252_ _249_ _253_ AOI21X1
X_1186_ GND VDD _72_ _75_ _69_ _254_ OAI21X1
X_1187_ GND VDD _68_ _73_ _71_ _255_ NAND3X1
X_1188_ GND VDD _255_ _254_ _253_ _256_ AOI21X1
X_1189_ GND VDD _61_ _82_ _257_ AND2X2
X_1190_ GND VDD _254_ _253_ _255_ _258_ NAND3X1
X_1191_ GND VDD _257_ _258_ _256_ _259_ AOI21X1
X_1192_ GND VDD _115_ _116_ _113_ _260_ OAI21X1
X_1193_ GND VDD _117_ _97_ _101_ _261_ NAND3X1
X_1194_ GND VDD _261_ _260_ _259_ _262_ NAND3X1
X_1195_ GND VDD _248_ _262_ _119_ _263_ NAND3X1
X_1196_ GND VDD _173_ _172_ _170_ _264_ OAI21X1
X_1197_ GND VDD _174_ _160_ _164_ _265_ NAND3X1
X_1198_ GND VDD _119_ _263_ _264_ _265_ 
+ _266_
+ AOI22X1
X_1199_ GND VDD _177_ _243_ _244_ _267_ NAND3X1
X_1200_ GND VDD _241_ _237_ _168_ _268_ OAI21X1
X_1201_ GND VDD _268_ _267_ _266_ _269_ AOI21X1
X_1202_ GND VDD _257_ _258_ _77_ _270_ NAND3X1
X_1203_ GND VDD _252_ _250_ _64_ _271_ NAND3X1
X_1204_ GND VDD BI_0_bF$buf2 AI[1] _272_ NAND2X1
X_1205_ GND VDD AI[0] BI[2] _273_ NAND2X1
X_1206_ GND VDD BI_0_bF$buf1 AI[2] BI_1_bF$buf1 AI[1] 
+ _274_
+ AOI22X1
X_1207_ GND VDD _62_ _272_ _273_ _274_ 
+ _275_
+ OAI22X1
X_1208_ GND VDD _249_ _66_ _65_ _276_ OAI21X1
X_1209_ GND VDD _275_ _276_ _271_ _277_ NAND3X1
X_1210_ GND VDD _271_ _276_ _275_ _278_ AOI21X1
X_1211_ GND VDD _78_ _278_ _277_ _279_ OAI21X1
X_1212_ GND VDD _256_ _84_ _83_ _280_ OAI21X1
X_1213_ GND VDD _270_ _279_ _280_ _281_ NAND3X1
X_1214_ GND VDD _281_ _282_ INVX1
X_1215_ GND VDD _77_ _270_ _260_ _261_ 
+ _283_
+ AOI22X1
X_1216_ GND VDD _283_ _120_ _61_ _284_ OAI21X1
X_1217_ GND VDD _263_ _282_ _284_ _285_ NAND3X1
X_1218_ GND VDD _175_ _171_ _121_ _286_ AOI21X1
X_1219_ GND VDD _285_ _266_ _286_ _287_ NOR3X1
X_1220_ GND VDD _278_ _288_ INVX1
X_1221_ GND VDD _59_ _277_ _288_ _289_ NAND3X1
X_1222_ GND VDD _273_ _290_ INVX1
X_1223_ GND VDD _62_ _272_ _291_ NOR2X1
X_1224_ GND VDD _274_ _291_ _292_ NOR2X1
X_1225_ GND VDD _290_ _292_ _293_ NAND2X1
X_1226_ GND VDD AI[0] BI_1_bF$buf0 _294_ NAND2X1
X_1227_ GND VDD _272_ _294_ _295_ NOR2X1
X_1228_ GND VDD _274_ _291_ _273_ _296_ OAI21X1
X_1229_ GND VDD _295_ _296_ _293_ _297_ NAND3X1
X_1230_ GND VDD _297_ _298_ INVX1
X_1231_ GND VDD _277_ _299_ INVX1
X_1232_ GND VDD _278_ _299_ _78_ _300_ OAI21X1
X_1233_ GND VDD _298_ _300_ _289_ _301_ NAND3X1
X_1234_ GND VDD _280_ _270_ _279_ _302_ AOI21X1
X_1235_ GND VDD _302_ _301_ _282_ _303_ NOR3X1
X_1236_ GND VDD _283_ _120_ _248_ _304_ OAI21X1
X_1237_ GND VDD _61_ _262_ _119_ _305_ NAND3X1
X_1238_ GND VDD _281_ _305_ _304_ _306_ NAND3X1
X_1239_ GND VDD _285_ _306_ _303_ _307_ NAND3X1
X_1240_ GND VDD _307_ _308_ INVX1
X_1241_ GND VDD _266_ _286_ _285_ _309_ OAI21X1
X_1242_ GND VDD _308_ _309_ _287_ _310_ AOI21X1
X_1243_ GND VDD _269_ _310_ _247_ _311_ OAI21X1
X_1244_ GND VDD _177_ _243_ _241_ _312_ AOI21X1
X_1245_ GND VDD _226_ _233_ _313_ NAND2X1
X_1246_ GND VDD _235_ _231_ _217_ _314_ OAI21X1
X_1247_ GND VDD BI[7] AI[1] _315_ NAND2X1
X_1248_ GND VDD _315_ _316_ INVX1
X_1249_ GND VDD _106_ _165_ _317_ NOR2X1
X_1250_ GND VDD _194_ _199_ _198_ _318_ OAI21X1
X_1251_ GND VDD _317_ _318_ _319_ NAND2X1
X_1252_ GND VDD _318_ _317_ _320_ OR2X2
X_1253_ GND VDD _316_ _319_ _320_ _321_ NAND3X1
X_1254_ GND VDD _318_ _317_ _322_ AND2X2
X_1255_ GND VDD _317_ _318_ _323_ NOR2X1
X_1256_ GND VDD _323_ _322_ _315_ _324_ OAI21X1
X_1257_ GND VDD _324_ _321_ _325_ NAND2X1
X_1258_ GND VDD _206_ _209_ _193_ _326_ AOI21X1
X_1259_ GND VDD BI[5] AI[3] _327_ NAND2X1
X_1260_ GND VDD BI_4_bF$buf1 AI[4] _328_ AND2X2
X_1261_ GND VDD _127_ _58_ _328_ _329_ OAI21X1
X_1262_ GND VDD AI[5] BI_3_bF$buf2 _330_ AND2X2
X_1263_ GND VDD _80_ _202_ _330_ _331_ OAI21X1
X_1264_ GND VDD _327_ _329_ _331_ _332_ NAND3X1
X_1265_ GND VDD _327_ _333_ INVX1
X_1266_ GND VDD _328_ _330_ _334_ NAND2X1
X_1267_ GND VDD AI[5] BI_3_bF$buf1 BI_4_bF$buf0 AI[4] 
+ _335_
+ AOI22X1
X_1268_ GND VDD _335_ _336_ INVX1
X_1269_ GND VDD _333_ _336_ _334_ _337_ NAND3X1
X_1270_ GND VDD _337_ _332_ _338_ NAND2X1
X_1271_ GND VDD _183_ _185_ _188_ _339_ AOI21X1
X_1272_ GND VDD \u_ALU8.AI7\ BI[2] _340_ NAND2X1
X_1273_ GND VDD _340_ _341_ INVX1
X_1274_ GND VDD BI_1_bF$buf3 \u_ALU8.AI7\ BI[2] AI[6] 
+ _342_
+ AOI22X1
X_1275_ GND VDD _341_ _124_ _342_ _343_ AOI21X1
X_1276_ GND VDD _343_ _339_ _344_ NAND2X1
X_1277_ GND VDD _182_ _184_ _181_ _345_ OAI21X1
X_1278_ GND VDD _342_ _346_ INVX1
X_1279_ GND VDD _133_ _340_ _346_ _347_ OAI21X1
X_1280_ GND VDD _347_ _345_ _348_ NAND2X1
X_1281_ GND VDD _348_ _338_ _344_ _349_ NAND3X1
X_1282_ GND VDD _332_ _337_ _350_ AND2X2
X_1283_ GND VDD _343_ _345_ _351_ NAND2X1
X_1284_ GND VDD _347_ _339_ _352_ NAND2X1
X_1285_ GND VDD _351_ _352_ _350_ _353_ NAND3X1
X_1286_ GND VDD _349_ _353_ _326_ _354_ NAND3X1
X_1287_ GND VDD _211_ _190_ _210_ _355_ OAI21X1
X_1288_ GND VDD _332_ _337_ _352_ _351_ 
+ _356_
+ AOI22X1
X_1289_ GND VDD _344_ _348_ _338_ _357_ AOI21X1
X_1290_ GND VDD _356_ _357_ _355_ _358_ OAI21X1
X_1291_ GND VDD _325_ _358_ _354_ _359_ NAND3X1
X_1292_ GND VDD _321_ _324_ _360_ AND2X2
X_1293_ GND VDD _349_ _353_ _355_ _361_ NAND3X1
X_1294_ GND VDD _356_ _357_ _326_ _362_ OAI21X1
X_1295_ GND VDD _362_ _361_ _360_ _363_ NAND3X1
X_1296_ GND VDD _359_ _363_ _314_ _364_ NAND3X1
X_1297_ GND VDD _213_ _229_ _232_ _365_ AOI21X1
X_1298_ GND VDD _321_ _324_ _361_ _362_ 
+ _366_
+ AOI22X1
X_1299_ GND VDD _354_ _358_ _325_ _367_ AOI21X1
X_1300_ GND VDD _366_ _367_ _365_ _368_ OAI21X1
X_1301_ GND VDD _364_ _368_ _313_ _369_ AOI21X1
X_1302_ GND VDD _313_ _370_ INVX1
X_1303_ GND VDD _359_ _363_ _365_ _371_ NAND3X1
X_1304_ GND VDD _366_ _367_ _314_ _372_ OAI21X1
X_1305_ GND VDD _371_ _372_ _370_ _373_ AOI21X1
X_1306_ GND VDD _369_ _373_ _312_ _374_ OAI21X1
X_1307_ GND VDD _168_ _237_ _244_ _375_ OAI21X1
X_1308_ GND VDD _370_ _372_ _371_ _376_ NAND3X1
X_1309_ GND VDD _313_ _368_ _364_ _377_ NAND3X1
X_1310_ GND VDD _376_ _377_ _375_ _378_ NAND3X1
X_1311_ GND VDD _374_ _378_ _379_ AND2X2
X_1312_ GND VDD _379_ _311_ _380_ NAND2X1
X_1313_ GND VDD _176_ _245_ _242_ _381_ NAND3X1
X_1314_ GND VDD _285_ _382_ INVX1
X_1315_ GND VDD _171_ _175_ _383_ NAND2X1
X_1316_ GND VDD _119_ _263_ _383_ _384_ NAND3X1
X_1317_ GND VDD _176_ _382_ _384_ _385_ NAND3X1
X_1318_ GND VDD _384_ _176_ _382_ _386_ AOI21X1
X_1319_ GND VDD _307_ _386_ _385_ _387_ OAI21X1
X_1320_ GND VDD _387_ _381_ _246_ _388_ AOI21X1
X_1321_ GND VDD _378_ _374_ _389_ NAND2X1
X_1322_ GND VDD _389_ _388_ _390_ NAND2X1
X_1323_ GND VDD _390_ _380_ _391_ AND2X2
X_1324_ GND VDD ABCmd_i[7] HC _392_ NOR2X1
X_1325_ GND VDD _392_ _733_ _393_ NOR2X1
X_1326_ GND VDD _54_ _391_ _393_ _394_ OAI21X1
X_1327_ GND VDD BI_0_bF$buf0 AI[0] _54_ _395_ AOI21X1
X_1328_ GND VDD ACC[0] ABCmd_i[7] _733_ _396_ OAI21X1
X_1329_ GND VDD _395_ _396_ _394_ _397_ OAI21X1
X_1330_ GND VDD _718_ _397_ _398_ NAND2X1
X_1331_ GND VDD _56_ _718_ _398_ _9_ OAI21X1
X_1332_ GND VDD _924_[1] _399_ INVX1
X_1333_ GND VDD AN _400_ INVX1
X_1334_ GND VDD state[1] _730_ ABCmd_i[7] _401_ OAI21X1
X_1335_ GND VDD _400_ _733_ _401_ _402_ OAI21X1
X_1336_ GND VDD _359_ _363_ _314_ _403_ AOI21X1
X_1337_ GND VDD _370_ _403_ _364_ _404_ OAI21X1
X_1338_ GND VDD _315_ _323_ _319_ _405_ OAI21X1
X_1339_ GND VDD _349_ _353_ _355_ _406_ AOI21X1
X_1340_ GND VDD _325_ _406_ _361_ _407_ OAI21X1
X_1341_ GND VDD AI[2] BI[7] _408_ NAND2X1
X_1342_ GND VDD _408_ _409_ INVX1
X_1343_ GND VDD _147_ _165_ _410_ NOR2X1
X_1344_ GND VDD _327_ _335_ _334_ _411_ OAI21X1
X_1345_ GND VDD _410_ _411_ _412_ NAND2X1
X_1346_ GND VDD _411_ _410_ _413_ OR2X2
X_1347_ GND VDD _409_ _412_ _413_ _414_ NAND3X1
X_1348_ GND VDD _411_ _410_ _415_ AND2X2
X_1349_ GND VDD _410_ _411_ _416_ NOR2X1
X_1350_ GND VDD _416_ _415_ _408_ _417_ OAI21X1
X_1351_ GND VDD _417_ _414_ _418_ NAND2X1
X_1352_ GND VDD _347_ _339_ _419_ NOR2X1
X_1353_ GND VDD _350_ _352_ _419_ _420_ AOI21X1
X_1354_ GND VDD AI[4] BI[5] _421_ NAND2X1
X_1355_ GND VDD _421_ _422_ INVX1
X_1356_ GND VDD AI[5] BI_4_bF$buf3 _423_ AND2X2
X_1357_ GND VDD AI[6] BI_3_bF$buf0 _424_ AND2X2
X_1358_ GND VDD _423_ _424_ _425_ NAND2X1
X_1359_ GND VDD AI[6] BI_3_bF$buf3 AI[5] BI_4_bF$buf2 
+ _426_
+ AOI22X1
X_1360_ GND VDD _426_ _427_ INVX1
X_1361_ GND VDD _425_ _427_ _422_ _428_ AOI21X1
X_1362_ GND VDD AI[6] _429_ INVX2
X_1363_ GND VDD _429_ _58_ _423_ _430_ OAI21X1
X_1364_ GND VDD _127_ _80_ _424_ _431_ OAI21X1
X_1365_ GND VDD _430_ _431_ _421_ _432_ AOI21X1
X_1366_ GND VDD _124_ _340_ _428_ _432_ 
+ _433_
+ OAI22X1
X_1367_ GND VDD _421_ _430_ _431_ _434_ NAND3X1
X_1368_ GND VDD _422_ _427_ _425_ _435_ NAND3X1
X_1369_ GND VDD _340_ _124_ _436_ NOR2X1
X_1370_ GND VDD _436_ _435_ _434_ _437_ NAND3X1
X_1371_ GND VDD _437_ _433_ _438_ NAND2X1
X_1372_ GND VDD _438_ _420_ _439_ NOR2X1
X_1373_ GND VDD _343_ _345_ _440_ NOR2X1
X_1374_ GND VDD _338_ _440_ _351_ _441_ OAI21X1
X_1375_ GND VDD _433_ _437_ _441_ _442_ AOI21X1
X_1376_ GND VDD _442_ _439_ _418_ _443_ OAI21X1
X_1377_ GND VDD _414_ _417_ _444_ AND2X2
X_1378_ GND VDD _433_ _437_ _441_ _445_ NAND3X1
X_1379_ GND VDD _438_ _420_ _446_ NAND2X1
X_1380_ GND VDD _445_ _446_ _444_ _447_ NAND3X1
X_1381_ GND VDD _447_ _443_ _407_ _448_ NAND3X1
X_1382_ GND VDD _356_ _357_ _326_ _449_ NOR3X1
X_1383_ GND VDD _360_ _362_ _449_ _450_ AOI21X1
X_1384_ GND VDD _446_ _445_ _444_ _451_ AOI21X1
X_1385_ GND VDD _433_ _437_ _420_ _452_ NAND3X1
X_1386_ GND VDD _419_ _357_ _438_ _453_ OAI21X1
X_1387_ GND VDD _452_ _453_ _418_ _454_ AOI21X1
X_1388_ GND VDD _451_ _454_ _450_ _455_ OAI21X1
X_1389_ GND VDD _405_ _448_ _455_ _456_ NAND3X1
X_1390_ GND VDD _405_ _457_ INVX1
X_1391_ GND VDD _443_ _447_ _450_ _458_ NAND3X1
X_1392_ GND VDD _454_ _451_ _407_ _459_ OAI21X1
X_1393_ GND VDD _457_ _459_ _458_ _460_ NAND3X1
X_1394_ GND VDD _456_ _460_ _404_ _461_ AOI21X1
X_1395_ GND VDD _457_ _448_ _455_ _462_ NAND3X1
X_1396_ GND VDD _405_ _459_ _458_ _463_ NAND3X1
X_1397_ GND VDD _364_ _377_ _463_ _462_ 
+ _464_
+ AOI22X1
X_1398_ GND VDD _464_ _461_ _465_ NOR2X1
X_1399_ GND VDD _380_ _378_ _465_ _466_ AOI21X1
X_1400_ GND VDD _389_ _388_ _378_ _467_ OAI21X1
X_1401_ GND VDD _364_ _468_ INVX1
X_1402_ GND VDD _313_ _368_ _468_ _469_ AOI21X1
X_1403_ GND VDD _462_ _463_ _469_ _470_ NAND3X1
X_1404_ GND VDD _456_ _460_ _404_ _471_ NAND3X1
X_1405_ GND VDD _471_ _470_ _472_ NAND2X1
X_1406_ GND VDD _472_ _467_ ABCmd_i[7] _473_ OAI21X1
X_1407_ GND VDD _466_ _473_ _402_ _474_ OAI21X1
X_1408_ GND VDD _272_ _294_ _475_ AND2X2
X_1409_ GND VDD ACC[1] _54_ _476_ NAND2X1
X_1410_ GND VDD _272_ _294_ ABCmd_i[7] _477_ OAI21X1
X_1411_ GND VDD _477_ _475_ _476_ _478_ OAI21X1
X_1412_ GND VDD _478_ _721_ _730_ _479_ AOI21X1
X_1413_ GND VDD _399_ _730_ _474_ _479_ 
+ _10_
+ AOI22X1
X_1414_ GND VDD state[0] _717_ _924_[2] _480_ OAI21X1
X_1415_ GND VDD _379_ _465_ _311_ _481_ NAND3X1
X_1416_ GND VDD _378_ _471_ _461_ _482_ AOI21X1
X_1417_ GND VDD _482_ _483_ INVX1
X_1418_ GND VDD _408_ _416_ _412_ _484_ OAI21X1
X_1419_ GND VDD _484_ _485_ INVX1
X_1420_ GND VDD _444_ _446_ _439_ _486_ AOI21X1
X_1421_ GND VDD AI[3] BI[7] _487_ NAND2X1
X_1422_ GND VDD _487_ _488_ INVX1
X_1423_ GND VDD _202_ _165_ _489_ NOR2X1
X_1424_ GND VDD _421_ _426_ _425_ _490_ OAI21X1
X_1425_ GND VDD _489_ _490_ _491_ NAND2X1
X_1426_ GND VDD _490_ _489_ _492_ OR2X2
X_1427_ GND VDD _488_ _491_ _492_ _493_ NAND3X1
X_1428_ GND VDD _490_ _489_ _494_ AND2X2
X_1429_ GND VDD _489_ _490_ _495_ NOR2X1
X_1430_ GND VDD _495_ _494_ _487_ _496_ OAI21X1
X_1431_ GND VDD _496_ _493_ _497_ NAND2X1
X_1432_ GND VDD _124_ _341_ _498_ NAND2X1
X_1433_ GND VDD AI[5] BI[5] _499_ NAND2X1
X_1434_ GND VDD _499_ _500_ INVX1
X_1435_ GND VDD AI[6] BI_3_bF$buf2 _501_ NAND2X1
X_1436_ GND VDD \u_ALU8.AI7\ BI_4_bF$buf1 _502_ NAND2X1
X_1437_ GND VDD _501_ _502_ _503_ NOR2X1
X_1438_ GND VDD _503_ _504_ INVX1
X_1439_ GND VDD \u_ALU8.AI7\ BI_3_bF$buf1 AI[6] BI_4_bF$buf0 
+ _505_
+ AOI22X1
X_1440_ GND VDD _505_ _506_ INVX1
X_1441_ GND VDD _500_ _506_ _504_ _507_ NAND3X1
X_1442_ GND VDD _505_ _503_ _499_ _508_ OAI21X1
X_1443_ GND VDD _508_ _507_ _509_ NAND2X1
X_1444_ GND VDD _498_ _437_ _509_ _510_ AOI21X1
X_1445_ GND VDD _498_ _437_ _509_ _511_ NAND3X1
X_1446_ GND VDD _511_ _512_ INVX1
X_1447_ GND VDD _510_ _512_ _497_ _513_ OAI21X1
X_1448_ GND VDD _493_ _496_ _514_ AND2X2
X_1449_ GND VDD _498_ _437_ _515_ NAND2X1
X_1450_ GND VDD _507_ _508_ _515_ _516_ NAND3X1
X_1451_ GND VDD _516_ _511_ _514_ _517_ NAND3X1
X_1452_ GND VDD _513_ _517_ _486_ _518_ NAND3X1
X_1453_ GND VDD _418_ _442_ _445_ _519_ OAI21X1
X_1454_ GND VDD _493_ _496_ _516_ _511_ 
+ _520_
+ AOI22X1
X_1455_ GND VDD _515_ _509_ _521_ OR2X2
X_1456_ GND VDD _509_ _515_ _522_ NAND2X1
X_1457_ GND VDD _521_ _522_ _497_ _523_ AOI21X1
X_1458_ GND VDD _520_ _523_ _519_ _524_ OAI21X1
X_1459_ GND VDD _485_ _524_ _518_ _525_ NAND3X1
X_1460_ GND VDD _513_ _517_ _519_ _526_ NAND3X1
X_1461_ GND VDD _520_ _523_ _486_ _527_ OAI21X1
X_1462_ GND VDD _484_ _526_ _527_ _528_ NAND3X1
X_1463_ GND VDD _528_ _525_ _529_ NAND2X1
X_1464_ GND VDD _448_ _456_ _529_ _530_ NAND3X1
X_1465_ GND VDD _443_ _447_ _407_ _531_ AOI21X1
X_1466_ GND VDD _457_ _531_ _448_ _532_ OAI21X1
X_1467_ GND VDD _525_ _528_ _532_ _533_ NAND3X1
X_1468_ GND VDD _533_ _530_ _534_ NAND2X1
X_1469_ GND VDD _481_ _483_ _534_ _535_ AOI21X1
X_1470_ GND VDD _379_ _465_ _536_ NAND2X1
X_1471_ GND VDD _388_ _536_ _483_ _537_ OAI21X1
X_1472_ GND VDD _534_ _538_ INVX1
X_1473_ GND VDD _538_ _537_ _539_ NOR2X1
X_1474_ GND VDD _535_ _539_ ABCmd_i[7] _540_ OAI21X1
X_1475_ GND VDD ABCmd_i[7] AZ _541_ NOR2X1
X_1476_ GND VDD _541_ _733_ _542_ NOR2X1
X_1477_ GND VDD _293_ _296_ _295_ _543_ AOI21X1
X_1478_ GND VDD _543_ _298_ ABCmd_i[7] _544_ OAI21X1
X_1479_ GND VDD ABCmd_i[7] ACC[2] _545_ NOR2X1
X_1480_ GND VDD _545_ _25_ _546_ NOR2X1
X_1481_ GND VDD _544_ _546_ _540_ _542_ 
+ _547_
+ AOI22X1
X_1482_ GND VDD _730_ _547_ _480_ _11_ OAI21X1
X_1483_ GND VDD _924_[3] _548_ INVX1
X_1484_ GND VDD AV _549_ INVX1
X_1485_ GND VDD _549_ _733_ _401_ _550_ OAI21X1
X_1486_ GND VDD _533_ _551_ INVX1
X_1487_ GND VDD _487_ _495_ _491_ _552_ OAI21X1
X_1488_ GND VDD _552_ _553_ INVX1
X_1489_ GND VDD _514_ _511_ _510_ _554_ AOI21X1
X_1490_ GND VDD AI[4] BI[7] _555_ NAND2X1
X_1491_ GND VDD _555_ _556_ INVX1
X_1492_ GND VDD _127_ _165_ _557_ NOR2X1
X_1493_ GND VDD _501_ _502_ _499_ _505_ 
+ _558_
+ OAI22X1
X_1494_ GND VDD _557_ _558_ _559_ NAND2X1
X_1495_ GND VDD _558_ _557_ _560_ OR2X2
X_1496_ GND VDD _556_ _559_ _560_ _561_ NAND3X1
X_1497_ GND VDD BI[7] _562_ INVX2
X_1498_ GND VDD _559_ _560_ _563_ NAND2X1
X_1499_ GND VDD _202_ _562_ _563_ _564_ OAI21X1
X_1500_ GND VDD AI[6] BI_4_bF$buf3 _565_ NAND2X1
X_1501_ GND VDD \u_ALU8.AI7\ BI[5] _566_ NAND2X1
X_1502_ GND VDD _565_ _566_ _567_ NOR2X1
X_1503_ GND VDD _567_ _568_ INVX1
X_1504_ GND VDD BI[5] _569_ INVX1
X_1505_ GND VDD _429_ _569_ _502_ _570_ OAI21X1
X_1506_ GND VDD _568_ _570_ _571_ AND2X2
X_1507_ GND VDD _564_ _561_ _571_ _572_ AOI21X1
X_1508_ GND VDD _572_ _573_ INVX1
X_1509_ GND VDD _571_ _561_ _564_ _574_ NAND3X1
X_1510_ GND VDD _573_ _574_ _554_ _575_ NAND3X1
X_1511_ GND VDD _497_ _512_ _516_ _576_ OAI21X1
X_1512_ GND VDD _574_ _577_ INVX1
X_1513_ GND VDD _572_ _577_ _576_ _578_ OAI21X1
X_1514_ GND VDD _553_ _578_ _575_ _579_ NAND3X1
X_1515_ GND VDD _574_ _576_ _573_ _580_ NAND3X1
X_1516_ GND VDD _572_ _577_ _554_ _581_ OAI21X1
X_1517_ GND VDD _552_ _580_ _581_ _582_ NAND3X1
X_1518_ GND VDD _582_ _579_ _583_ NAND2X1
X_1519_ GND VDD _526_ _528_ _583_ _584_ NAND3X1
X_1520_ GND VDD _517_ _513_ _519_ _585_ AOI21X1
X_1521_ GND VDD _485_ _585_ _526_ _586_ OAI21X1
X_1522_ GND VDD _579_ _582_ _586_ _587_ NAND3X1
X_1523_ GND VDD _587_ _584_ _588_ NAND2X1
X_1524_ GND VDD _551_ _588_ _535_ _589_ NOR3X1
X_1525_ GND VDD _537_ _538_ _551_ _590_ AOI21X1
X_1526_ GND VDD _588_ _591_ INVX1
X_1527_ GND VDD _591_ _590_ ABCmd_i[7] _592_ OAI21X1
X_1528_ GND VDD _589_ _592_ _550_ _593_ OAI21X1
X_1529_ GND VDD _300_ _289_ _594_ NAND2X1
X_1530_ GND VDD _297_ _594_ _595_ NAND2X1
X_1531_ GND VDD _301_ _595_ _596_ NAND2X1
X_1532_ GND VDD ACC[3] _54_ _597_ NAND2X1
X_1533_ GND VDD _54_ _596_ _597_ _598_ OAI21X1
X_1534_ GND VDD _598_ _721_ _730_ _599_ AOI21X1
X_1535_ GND VDD _548_ _730_ _593_ _599_ 
+ _12_
+ AOI22X1
X_1536_ GND VDD _924_[4] _600_ INVX1
X_1537_ GND VDD _580_ _582_ _601_ NAND2X1
X_1538_ GND VDD _601_ _602_ INVX1
X_1539_ GND VDD _555_ _563_ _559_ _603_ OAI21X1
X_1540_ GND VDD _603_ _604_ INVX1
X_1541_ GND VDD \u_ALU8.AI7\ _605_ INVX1
X_1542_ GND VDD _127_ _562_ _606_ NOR2X1
X_1543_ GND VDD _429_ _165_ _607_ NOR2X1
X_1544_ GND VDD _607_ _567_ _608_ NOR2X1
X_1545_ GND VDD BI[6] _567_ _608_ _609_ AOI21X1
X_1546_ GND VDD _606_ _609_ _610_ NAND2X1
X_1547_ GND VDD _165_ _568_ _611_ NOR2X1
X_1548_ GND VDD _127_ _562_ _608_ _611_ 
+ _612_
+ OAI22X1
X_1549_ GND VDD _612_ _610_ _613_ NAND2X1
X_1550_ GND VDD _605_ _569_ _613_ _614_ OAI21X1
X_1551_ GND VDD _566_ _615_ INVX1
X_1552_ GND VDD _615_ _612_ _610_ _616_ NAND3X1
X_1553_ GND VDD _616_ _614_ _617_ NAND2X1
X_1554_ GND VDD _574_ _617_ _618_ NOR2X1
X_1555_ GND VDD _614_ _616_ _577_ _619_ AOI21X1
X_1556_ GND VDD _619_ _618_ _604_ _620_ OAI21X1
X_1557_ GND VDD _617_ _574_ _621_ OR2X2
X_1558_ GND VDD _619_ _622_ INVX1
X_1559_ GND VDD _603_ _621_ _622_ _623_ NAND3X1
X_1560_ GND VDD _620_ _623_ _624_ NAND2X1
X_1561_ GND VDD _624_ _602_ _625_ NAND2X1
X_1562_ GND VDD _620_ _623_ _601_ _626_ NAND3X1
X_1563_ GND VDD _626_ _625_ _627_ NAND2X1
X_1564_ GND VDD _389_ _472_ _628_ NOR2X1
X_1565_ GND VDD _588_ _534_ _629_ NOR2X1
X_1566_ GND VDD _311_ _629_ _628_ _630_ NAND3X1
X_1567_ GND VDD _587_ _533_ _631_ NAND2X1
X_1568_ GND VDD _584_ _631_ _629_ _482_ 
+ _632_
+ AOI22X1
X_1569_ GND VDD _632_ _630_ _627_ _633_ AOI21X1
X_1570_ GND VDD _627_ _634_ INVX1
X_1571_ GND VDD _584_ _631_ _635_ NAND2X1
X_1572_ GND VDD _534_ _588_ _635_ _636_ OAI21X1
X_1573_ GND VDD _584_ _631_ _482_ _637_ AOI21X1
X_1574_ GND VDD _388_ _536_ _637_ _638_ OAI21X1
X_1575_ GND VDD _638_ _636_ _634_ _639_ AOI21X1
X_1576_ GND VDD _639_ _633_ ABCmd_i[7] _640_ OAI21X1
X_1577_ GND VDD ABCmd_i[7] CO _641_ OR2X2
X_1578_ GND VDD _25_ _641_ _640_ _642_ NAND3X1
X_1579_ GND VDD _303_ _643_ INVX1
X_1580_ GND VDD _302_ _282_ _301_ _644_ OAI21X1
X_1581_ GND VDD _644_ _643_ _645_ NAND2X1
X_1582_ GND VDD ACC[4] _54_ _646_ NAND2X1
X_1583_ GND VDD _54_ _645_ _646_ _647_ OAI21X1
X_1584_ GND VDD _647_ _721_ _730_ _648_ AOI21X1
X_1585_ GND VDD _600_ _730_ _642_ _648_ 
+ _13_
+ AOI22X1
X_1586_ GND VDD _924_[5] _649_ INVX1
X_1587_ GND VDD _609_ _606_ _611_ _650_ AOI21X1
X_1588_ GND VDD _605_ _562_ _651_ NOR2X1
X_1589_ GND VDD _607_ _651_ _652_ NAND2X1
X_1590_ GND VDD _605_ _165_ _429_ _562_ 
+ _653_
+ OAI22X1
X_1591_ GND VDD _653_ _652_ _654_ NAND2X1
X_1592_ GND VDD _616_ _654_ _655_ OR2X2
X_1593_ GND VDD _566_ _613_ _654_ _656_ OAI21X1
X_1594_ GND VDD _656_ _655_ _657_ NAND2X1
X_1595_ GND VDD _650_ _657_ _658_ NAND2X1
X_1596_ GND VDD _657_ _650_ _659_ OR2X2
X_1597_ GND VDD _658_ _659_ _660_ NAND2X1
X_1598_ GND VDD _621_ _623_ _660_ _661_ NAND3X1
X_1599_ GND VDD _604_ _619_ _621_ _662_ OAI21X1
X_1600_ GND VDD _658_ _659_ _662_ _663_ NAND3X1
X_1601_ GND VDD _663_ _661_ _664_ NAND2X1
X_1602_ GND VDD _664_ _627_ _665_ NOR2X1
X_1603_ GND VDD _636_ _665_ _638_ _666_ NAND3X1
X_1604_ GND VDD _634_ _636_ _638_ _667_ NAND3X1
X_1605_ GND VDD _626_ _664_ _667_ _668_ NAND3X1
X_1606_ GND VDD _401_ _669_ INVX1
X_1607_ GND VDD _664_ _626_ _670_ OR2X2
X_1608_ GND VDD _670_ _669_ _671_ AND2X2
X_1609_ GND VDD _666_ _671_ _668_ _672_ NAND3X1
X_1610_ GND VDD _285_ _306_ _303_ _673_ AOI21X1
X_1611_ GND VDD _673_ _308_ ABCmd_i[7] _674_ OAI21X1
X_1612_ GND VDD ACC[5] _675_ INVX1
X_1613_ GND VDD _54_ _675_ state[1] _676_ AOI21X1
X_1614_ GND VDD _674_ _676_ _730_ _677_ AOI21X1
X_1615_ GND VDD _649_ _730_ _672_ _677_ 
+ _14_
+ AOI22X1