* NGSPICE file created from fir_pe.ext - technology: scmos

* Black-box entry subcircuit for FILL abstract view
.subckt FILL vdd gnd
.ends

* Black-box entry subcircuit for NAND2X1 abstract view
.subckt NAND2X1 A B Y vdd gnd
.ends

* Black-box entry subcircuit for DFFPOSX1 abstract view
.subckt DFFPOSX1 D CLK Q vdd gnd
.ends

* Black-box entry subcircuit for OAI22X1 abstract view
.subckt OAI22X1 A B C D Y vdd gnd
.ends

* Black-box entry subcircuit for OAI21X1 abstract view
.subckt OAI21X1 A B C Y vdd gnd
.ends

* Black-box entry subcircuit for INVX1 abstract view
.subckt INVX1 A Y vdd gnd
.ends

* Black-box entry subcircuit for XNOR2X1 abstract view
.subckt XNOR2X1 A B Y vdd gnd
.ends

* Black-box entry subcircuit for NOR2X1 abstract view
.subckt NOR2X1 A B Y vdd gnd
.ends

* Black-box entry subcircuit for BUFX2 abstract view
.subckt BUFX2 A Y vdd gnd
.ends

* Black-box entry subcircuit for NAND3X1 abstract view
.subckt NAND3X1 A B C Y vdd gnd
.ends

* Black-box entry subcircuit for AOI21X1 abstract view
.subckt AOI21X1 A B C Y vdd gnd
.ends

* Black-box entry subcircuit for AOI22X1 abstract view
.subckt AOI22X1 A B C D Y vdd gnd
.ends

* Black-box entry subcircuit for AND2X2 abstract view
.subckt AND2X2 A B Y vdd gnd
.ends

* Black-box entry subcircuit for XOR2X1 abstract view
.subckt XOR2X1 A B Y vdd gnd
.ends

* Black-box entry subcircuit for OR2X2 abstract view
.subckt OR2X2 A B Y vdd gnd
.ends

* Black-box entry subcircuit for CLKBUF1 abstract view
.subckt CLKBUF1 A Y vdd gnd
.ends

* Black-box entry subcircuit for INVX2 abstract view
.subckt INVX2 A Y vdd gnd
.ends

* Black-box entry subcircuit for INVX8 abstract view
.subckt INVX8 A Y vdd gnd
.ends

.subckt fir_pe gnd vdd Cin[5] Cin[4] Cin[3] Cin[2] Cin[1] Cin[0] Rdy Vld Xin[3] Xin[2]
+ Xin[1] Xin[0] Xout[3] Xout[2] Xout[1] Xout[0] Yin[3] Yin[2] Yin[1] Yin[0] Yout[3]
+ Yout[2] Yout[1] Yout[0] clk
XFILL_1__728_ vdd gnd FILL
XFILL86850x35250 vdd gnd FILL
XFILL_1__1104_ vdd gnd FILL
XFILL_2__992_ vdd gnd FILL
XFILL_1__1035_ vdd gnd FILL
XFILL_2__1213_ vdd gnd FILL
XFILL_0__815_ vdd gnd FILL
XFILL_2__1075_ vdd gnd FILL
XFILL_2__1144_ vdd gnd FILL
XFILL_0__746_ vdd gnd FILL
X_1270_ _1270_/A _1270_/B _1275_/C vdd gnd NAND2X1
XFILL_3__1253_ vdd gnd FILL
X_1468_ _804_/Y _1503_/CLK _802_/A vdd gnd DFFPOSX1
X_1399_ _738_/B _813_/A _1399_/C _1399_/D _1500_/D vdd gnd OAI22X1
XFILL_2__975_ vdd gnd FILL
XFILL_1__1018_ vdd gnd FILL
X_981_ _985_/A _985_/B _984_/A _982_/C vdd gnd OAI21X1
XFILL_3__742_ vdd gnd FILL
XFILL_0__1260_ vdd gnd FILL
XFILL_0__1191_ vdd gnd FILL
XFILL_2__1127_ vdd gnd FILL
XFILL_2__1058_ vdd gnd FILL
XFILL_0__729_ vdd gnd FILL
X_1253_ _1257_/B _1254_/A vdd gnd INVX1
X_1322_ _1322_/A _1329_/A _1324_/B vdd gnd XNOR2X1
XFILL_1__993_ vdd gnd FILL
X_1184_ _1370_/A _1184_/B _1184_/C _1481_/D vdd gnd OAI21X1
XFILL_0__1527_ vdd gnd FILL
XFILL_0__1389_ vdd gnd FILL
XFILL_2__760_ vdd gnd FILL
XFILL_2__958_ vdd gnd FILL
XFILL_2__889_ vdd gnd FILL
X_895_ _933_/D _895_/B _895_/C _904_/B vdd gnd OAI21X1
X_964_ _969_/D _969_/C _965_/A vdd gnd NAND2X1
XFILL_0__1243_ vdd gnd FILL
XFILL_0__1312_ vdd gnd FILL
XFILL_0__1174_ vdd gnd FILL
X_1236_ _1236_/A _1236_/B _1483_/D vdd gnd NAND2X1
X_1305_ _1307_/A _1306_/A _1309_/A vdd gnd NOR2X1
XFILL_1__976_ vdd gnd FILL
XFILL_1__1352_ vdd gnd FILL
XFILL_1__1421_ vdd gnd FILL
XBUFX2_insert0 _1526_/Q _786_/A vdd gnd BUFX2
XFILL_1__1283_ vdd gnd FILL
X_1098_ _1212_/B _1098_/B _1099_/B vdd gnd NAND2X1
X_1167_ _1202_/B _1173_/B _1174_/C _1192_/A vdd gnd NAND3X1
XFILL_2__743_ vdd gnd FILL
XFILL_2__812_ vdd gnd FILL
XFILL_2__1392_ vdd gnd FILL
XFILL_2__1530_ vdd gnd FILL
XFILL_0__994_ vdd gnd FILL
XFILL_1__761_ vdd gnd FILL
X_947_ _947_/A _947_/B _947_/C _952_/A vdd gnd AOI21X1
XFILL_1__830_ vdd gnd FILL
X_878_ _878_/A _915_/C vdd gnd INVX1
X_1021_ _974_/A _1089_/C _1036_/B _1025_/A vdd gnd NAND3X1
XFILL_0__1226_ vdd gnd FILL
XFILL_0__1157_ vdd gnd FILL
XFILL_0__1088_ vdd gnd FILL
XFILL_1__1404_ vdd gnd FILL
X_1219_ _1356_/B _812_/A _1219_/C _1482_/D vdd gnd OAI21X1
XFILL_1__959_ vdd gnd FILL
XFILL_1__1335_ vdd gnd FILL
XFILL_1__1266_ vdd gnd FILL
XFILL_2__726_ vdd gnd FILL
XFILL_1__1197_ vdd gnd FILL
X_732_ _732_/A _733_/B vdd gnd INVX1
X_801_ _807_/A _801_/B _801_/C _801_/Y vdd gnd OAI21X1
XFILL_2__1375_ vdd gnd FILL
XFILL_2__1444_ vdd gnd FILL
XFILL_0__1011_ vdd gnd FILL
XFILL_0__977_ vdd gnd FILL
XFILL_1__813_ vdd gnd FILL
XFILL_1__744_ vdd gnd FILL
XFILL87150x70350 vdd gnd FILL
XFILL87150x4050 vdd gnd FILL
X_1004_ _990_/A Cin[2] _998_/Y _999_/Y _1010_/B vdd gnd AOI22X1
XFILL_1__1120_ vdd gnd FILL
XFILL_0__1209_ vdd gnd FILL
XFILL_1__1051_ vdd gnd FILL
XFILL_2__1160_ vdd gnd FILL
XFILL_1__1249_ vdd gnd FILL
XFILL_0__762_ vdd gnd FILL
XFILL_1__1318_ vdd gnd FILL
XFILL_2__1091_ vdd gnd FILL
XFILL_0__900_ vdd gnd FILL
XFILL_0__831_ vdd gnd FILL
XFILL_2__1358_ vdd gnd FILL
XFILL_2__1289_ vdd gnd FILL
XFILL_2__1427_ vdd gnd FILL
X_1484_ _1484_/D _1503_/CLK _1484_/Q vdd gnd DFFPOSX1
XFILL_2_BUFX2_insert25 vdd gnd FILL
XFILL_1__727_ vdd gnd FILL
XFILL_1__1034_ vdd gnd FILL
XFILL_1__1103_ vdd gnd FILL
XFILL_2__991_ vdd gnd FILL
XFILL_1_BUFX2_insert0 vdd gnd FILL
XFILL_2__1143_ vdd gnd FILL
XFILL_2__1212_ vdd gnd FILL
XFILL_0__745_ vdd gnd FILL
XFILL_0_CLKBUF1_insert7 vdd gnd FILL
XFILL_0__814_ vdd gnd FILL
XFILL_2__1074_ vdd gnd FILL
XFILL_3__1321_ vdd gnd FILL
X_1398_ _810_/B _1402_/B _813_/A _1399_/C vdd gnd OAI21X1
X_1467_ _801_/Y _1503_/CLK _799_/A vdd gnd DFFPOSX1
XFILL_1__1017_ vdd gnd FILL
XFILL_2__974_ vdd gnd FILL
XFILL_3__810_ vdd gnd FILL
XFILL85950x11850 vdd gnd FILL
X_980_ _980_/A Cin[4] _984_/A vdd gnd AND2X2
XFILL85650x46950 vdd gnd FILL
XFILL_0__1190_ vdd gnd FILL
XFILL_2__1126_ vdd gnd FILL
XFILL_0__728_ vdd gnd FILL
XFILL_2__1057_ vdd gnd FILL
X_1252_ _1252_/A _1252_/B _1252_/C _1254_/B vdd gnd AOI21X1
X_1321_ _1328_/B _1321_/B _1329_/A vdd gnd NOR2X1
XFILL_3__939_ vdd gnd FILL
XFILL_1__992_ vdd gnd FILL
X_1183_ _1481_/Q _1391_/B _1184_/C vdd gnd NAND2X1
XFILL_0__1388_ vdd gnd FILL
X_1519_ _1519_/D _1521_/CLK _977_/A vdd gnd DFFPOSX1
XFILL_2__957_ vdd gnd FILL
XFILL_2__888_ vdd gnd FILL
XFILL85950x23550 vdd gnd FILL
X_894_ _933_/C _894_/B _894_/C _904_/A vdd gnd NAND3X1
X_963_ _969_/A _969_/B _965_/B vdd gnd NAND2X1
XFILL_0__1311_ vdd gnd FILL
XFILL_0__1242_ vdd gnd FILL
XFILL_2__1109_ vdd gnd FILL
XFILL_0__1173_ vdd gnd FILL
XFILL_1__1420_ vdd gnd FILL
X_1304_ _1304_/A _1326_/C _1307_/A vdd gnd AND2X2
X_1235_ _807_/A _1235_/B _1235_/C _1236_/B vdd gnd NAND3X1
XBUFX2_insert1 _1526_/Q _807_/A vdd gnd BUFX2
XFILL_1__975_ vdd gnd FILL
X_1166_ _1193_/C _1169_/C _1169_/A _1202_/B vdd gnd NAND3X1
X_1097_ _1480_/Q _1391_/B _1147_/C vdd gnd NAND2X1
XFILL_2__811_ vdd gnd FILL
XFILL_1__1351_ vdd gnd FILL
XFILL_1__1282_ vdd gnd FILL
XFILL_2__742_ vdd gnd FILL
XFILL_2__1391_ vdd gnd FILL
XFILL_0__993_ vdd gnd FILL
XFILL_1__760_ vdd gnd FILL
X_877_ _877_/A _917_/A vdd gnd INVX1
X_1020_ _1020_/A _1020_/B _976_/Y _1036_/B vdd gnd OAI21X1
X_946_ _946_/A _989_/B _989_/A _952_/B vdd gnd AOI21X1
XFILL_3__1003_ vdd gnd FILL
XFILL_0__1225_ vdd gnd FILL
XFILL_0__1156_ vdd gnd FILL
XFILL_0__1087_ vdd gnd FILL
XFILL_1__1403_ vdd gnd FILL
X_1218_ _812_/A _1218_/B _1232_/C _1219_/C vdd gnd NAND3X1
X_1149_ _1191_/A _1214_/B _1149_/C _1182_/A vdd gnd AOI21X1
XFILL_1__958_ vdd gnd FILL
XFILL_1__889_ vdd gnd FILL
XFILL_1__1334_ vdd gnd FILL
XFILL_1__1265_ vdd gnd FILL
XFILL_1__1196_ vdd gnd FILL
XFILL_2__725_ vdd gnd FILL
X_731_ _743_/C _741_/A vdd gnd INVX1
X_800_ _812_/A _800_/B _801_/C vdd gnd NAND2X1
XFILL_2__1374_ vdd gnd FILL
XFILL_2__1443_ vdd gnd FILL
XFILL_0__976_ vdd gnd FILL
XFILL_0__1010_ vdd gnd FILL
XFILL_1__743_ vdd gnd FILL
XFILL_1__812_ vdd gnd FILL
X_1003_ _947_/C _1003_/B _946_/A _1078_/C vdd gnd OAI21X1
X_929_ _929_/A _929_/B _931_/C vdd gnd NAND2X1
XFILL_1__1050_ vdd gnd FILL
XFILL_0__1208_ vdd gnd FILL
XFILL_0__1139_ vdd gnd FILL
XFILL_1__1317_ vdd gnd FILL
XFILL_1__1248_ vdd gnd FILL
XFILL_0__761_ vdd gnd FILL
XFILL_1__1179_ vdd gnd FILL
XFILL_2__1090_ vdd gnd FILL
XFILL_0__830_ vdd gnd FILL
XFILL_2__1426_ vdd gnd FILL
XFILL_2__1288_ vdd gnd FILL
XFILL_2__1357_ vdd gnd FILL
XFILL_2_BUFX2_insert26 vdd gnd FILL
XFILL_0__959_ vdd gnd FILL
XFILL_2_BUFX2_insert15 vdd gnd FILL
X_1483_ _1483_/D _1503_/CLK _1483_/Q vdd gnd DFFPOSX1
XFILL_1__726_ vdd gnd FILL
XFILL_3__1397_ vdd gnd FILL
XFILL_2__990_ vdd gnd FILL
XFILL_1__1033_ vdd gnd FILL
XFILL_1__1102_ vdd gnd FILL
XFILL_1_BUFX2_insert1 vdd gnd FILL
XFILL_2__1211_ vdd gnd FILL
XFILL_2__1073_ vdd gnd FILL
XFILL_2__1142_ vdd gnd FILL
XFILL_0__813_ vdd gnd FILL
XFILL_0_CLKBUF1_insert8 vdd gnd FILL
XFILL_0__744_ vdd gnd FILL
XFILL_3__886_ vdd gnd FILL
XFILL_2__1409_ vdd gnd FILL
X_1535_ _745_/Y Yout[3] vdd gnd BUFX2
X_1397_ _808_/A _1401_/C _1399_/D vdd gnd NOR2X1
X_1466_ _798_/Y _1503_/CLK _796_/A vdd gnd DFFPOSX1
XFILL_2__973_ vdd gnd FILL
XFILL_1__1016_ vdd gnd FILL
XFILL_2__1056_ vdd gnd FILL
XFILL_2__1125_ vdd gnd FILL
XFILL_0__727_ vdd gnd FILL
X_1320_ _1328_/C _1321_/B vdd gnd INVX1
X_1251_ _1251_/A _1251_/B _1251_/C _1252_/C vdd gnd OAI21X1
X_1182_ _1182_/A _1214_/C _1184_/B vdd gnd XOR2X1
XFILL_1__991_ vdd gnd FILL
XFILL_0__1387_ vdd gnd FILL
X_1518_ _1518_/D _1523_/CLK _922_/A vdd gnd DFFPOSX1
X_1449_ _751_/A _979_/A _1449_/C _1520_/D vdd gnd OAI21X1
XFILL_2__887_ vdd gnd FILL
XFILL_2__956_ vdd gnd FILL
X_962_ _971_/A _971_/C _962_/C _969_/B vdd gnd NAND3X1
X_893_ _893_/A _893_/B _893_/C _904_/C vdd gnd AOI21X1
XFILL_0__1310_ vdd gnd FILL
XFILL_0__1241_ vdd gnd FILL
XFILL_2__1039_ vdd gnd FILL
XFILL_2__1108_ vdd gnd FILL
XFILL_0__1172_ vdd gnd FILL
X_1303_ _781_/A _966_/A _1326_/C vdd gnd NAND2X1
XFILL_1__974_ vdd gnd FILL
XFILL_1__1350_ vdd gnd FILL
X_1234_ _1241_/B _1234_/B _1235_/B vdd gnd NAND2X1
XBUFX2_insert2 _1526_/Q _815_/C vdd gnd BUFX2
X_1096_ _843_/B _1096_/B _1096_/C _1479_/D vdd gnd OAI21X1
X_1165_ _1165_/A _998_/B _1169_/C vdd gnd NOR2X1
XFILL_2__741_ vdd gnd FILL
XFILL_0__1439_ vdd gnd FILL
XFILL_2__810_ vdd gnd FILL
XFILL_1__1281_ vdd gnd FILL
XFILL_3__1079_ vdd gnd FILL
XFILL_2__1390_ vdd gnd FILL
XFILL_2__939_ vdd gnd FILL
XFILL_0__992_ vdd gnd FILL
X_945_ _951_/B _951_/C _952_/C _957_/B vdd gnd NAND3X1
X_876_ _876_/A _917_/B _876_/C _876_/D _876_/Y vdd gnd OAI22X1
XFILL_0__1224_ vdd gnd FILL
XFILL_0__1155_ vdd gnd FILL
XFILL_0__1086_ vdd gnd FILL
XFILL_1__957_ vdd gnd FILL
XFILL_1__1402_ vdd gnd FILL
X_1217_ _1217_/A _1252_/A _1217_/C _1232_/C vdd gnd OAI21X1
XFILL_1__1333_ vdd gnd FILL
X_1148_ _1214_/A _1149_/C vdd gnd INVX1
X_1079_ _987_/Y _1079_/B _1079_/C _1101_/C vdd gnd OAI21X1
XFILL_1__888_ vdd gnd FILL
XFILL_2__724_ vdd gnd FILL
XFILL_1__1264_ vdd gnd FILL
XFILL_1__1195_ vdd gnd FILL
X_730_ _730_/A _730_/B _730_/C _730_/Y vdd gnd OAI21X1
XFILL_2__1442_ vdd gnd FILL
XFILL_2__1373_ vdd gnd FILL
XFILL_0__975_ vdd gnd FILL
XFILL_1__811_ vdd gnd FILL
X_928_ _928_/A _931_/B vdd gnd INVX1
XFILL_1__742_ vdd gnd FILL
X_1002_ _990_/A _994_/B _994_/A _941_/B _1003_/B vdd gnd AOI22X1
X_859_ _859_/A _859_/B _859_/C _879_/C vdd gnd OAI21X1
XFILL_0__1207_ vdd gnd FILL
XFILL_0__1138_ vdd gnd FILL
XFILL_0__1069_ vdd gnd FILL
XFILL_1__1316_ vdd gnd FILL
XFILL_1__1247_ vdd gnd FILL
XFILL_0__760_ vdd gnd FILL
XFILL_1__1178_ vdd gnd FILL
XFILL_2__1356_ vdd gnd FILL
XFILL_2__1425_ vdd gnd FILL
XFILL_2__1287_ vdd gnd FILL
XFILL_0__958_ vdd gnd FILL
X_1482_ _1482_/D _1503_/CLK _1482_/Q vdd gnd DFFPOSX1
XFILL_2_BUFX2_insert27 vdd gnd FILL
XFILL_0__889_ vdd gnd FILL
XFILL_2_BUFX2_insert16 vdd gnd FILL
XFILL_1__725_ vdd gnd FILL
XFILL_1__1101_ vdd gnd FILL
XFILL_1__1032_ vdd gnd FILL
XFILL_1_BUFX2_insert2 vdd gnd FILL
XFILL_2__1210_ vdd gnd FILL
XFILL_0__812_ vdd gnd FILL
XFILL_2__1141_ vdd gnd FILL
XFILL_2__1072_ vdd gnd FILL
XFILL_0_CLKBUF1_insert9 vdd gnd FILL
XFILL_0__743_ vdd gnd FILL
XFILL_3__954_ vdd gnd FILL
XFILL_2__1339_ vdd gnd FILL
XFILL_2__1408_ vdd gnd FILL
X_1534_ _741_/Y Yout[2] vdd gnd BUFX2
X_1465_ _795_/Y _1525_/CLK _793_/A vdd gnd DFFPOSX1
X_1396_ _1402_/B _1401_/C vdd gnd INVX1
XFILL_2__972_ vdd gnd FILL
XFILL_1__1015_ vdd gnd FILL
XFILL_2__1055_ vdd gnd FILL
XFILL_2__1124_ vdd gnd FILL
XFILL_0__726_ vdd gnd FILL
XFILL_1__990_ vdd gnd FILL
X_1250_ _1251_/B _1252_/B vdd gnd INVX1
X_1181_ _1189_/A _1188_/A _1214_/C vdd gnd AND2X2
XFILL_0__1386_ vdd gnd FILL
X_1517_ _1517_/D _1521_/CLK _776_/B vdd gnd DFFPOSX1
X_1448_ _757_/A Xin[2] _1449_/C vdd gnd NAND2X1
X_1379_ _1381_/A _1395_/A _1383_/A vdd gnd NOR2X1
XFILL86550x54750 vdd gnd FILL
XFILL_2__955_ vdd gnd FILL
XFILL_2__886_ vdd gnd FILL
X_961_ _961_/A _961_/B _961_/C _962_/C vdd gnd OAI21X1
X_892_ _905_/C _905_/B _905_/A _955_/B vdd gnd AOI21X1
XFILL_0__1240_ vdd gnd FILL
XFILL_2__1038_ vdd gnd FILL
XFILL_2__1107_ vdd gnd FILL
XFILL_0__1171_ vdd gnd FILL
X_1302_ _781_/A _966_/A _1304_/A vdd gnd OR2X2
X_1233_ _1233_/A _1242_/B _1241_/A _1234_/B vdd gnd OAI21X1
XFILL_1__973_ vdd gnd FILL
XBUFX2_insert3 _1526_/Q _817_/A vdd gnd BUFX2
XFILL_1__1280_ vdd gnd FILL
X_1095_ _1479_/Q _843_/B _1096_/C vdd gnd NAND2X1
X_1164_ _998_/B _1165_/A _1164_/C _1173_/B vdd gnd OAI21X1
XFILL_3__1147_ vdd gnd FILL
XFILL_0__1438_ vdd gnd FILL
XFILL_0__1369_ vdd gnd FILL
XFILL_2__740_ vdd gnd FILL
XFILL86550x66450 vdd gnd FILL
XFILL_0__991_ vdd gnd FILL
XFILL_2__938_ vdd gnd FILL
XFILL_2__869_ vdd gnd FILL
X_944_ _989_/A _989_/B _946_/A _951_/C vdd gnd NAND3X1
X_875_ _917_/B _878_/A _876_/D vdd gnd NAND2X1
XFILL_0__1223_ vdd gnd FILL
XFILL_0__1154_ vdd gnd FILL
XFILL_0__1085_ vdd gnd FILL
X_1216_ _1233_/A _1217_/C vdd gnd INVX1
XFILL_1__887_ vdd gnd FILL
XFILL_1__956_ vdd gnd FILL
X_1147_ _1404_/A _1147_/B _1147_/C _1480_/D vdd gnd OAI21X1
XFILL_1__1401_ vdd gnd FILL
XFILL_1__1263_ vdd gnd FILL
XFILL_1__1332_ vdd gnd FILL
X_1078_ _1078_/A _995_/Y _1078_/C _1079_/B vdd gnd AOI21X1
XFILL_2__723_ vdd gnd FILL
XFILL86850x43050 vdd gnd FILL
XFILL_1__1194_ vdd gnd FILL
XFILL86550x78150 vdd gnd FILL
XFILL_2__1372_ vdd gnd FILL
XFILL_2__1441_ vdd gnd FILL
XFILL_0__974_ vdd gnd FILL
XFILL_1__741_ vdd gnd FILL
XFILL_1__810_ vdd gnd FILL
X_927_ _928_/A _927_/B _927_/C _950_/A vdd gnd NAND3X1
X_858_ _879_/B _879_/A _871_/C _868_/B vdd gnd NAND3X1
XCLKBUF1_insert10 clk _1521_/CLK vdd gnd CLKBUF1
X_789_ _815_/C _789_/B _789_/C _789_/Y vdd gnd OAI21X1
X_1001_ _995_/Y _1078_/A _989_/Y _1016_/B vdd gnd NAND3X1
XFILL_0__1137_ vdd gnd FILL
XFILL_0__1206_ vdd gnd FILL
XFILL_0__1068_ vdd gnd FILL
XFILL_1__939_ vdd gnd FILL
XFILL_1__1246_ vdd gnd FILL
XFILL_1__1315_ vdd gnd FILL
XFILL_1__1177_ vdd gnd FILL
XFILL_2__1355_ vdd gnd FILL
XFILL_2__1424_ vdd gnd FILL
XFILL_2__1286_ vdd gnd FILL
XFILL_0__957_ vdd gnd FILL
X_1481_ _1481_/D _1526_/CLK _1481_/Q vdd gnd DFFPOSX1
XFILL_2_BUFX2_insert28 vdd gnd FILL
XFILL_0__888_ vdd gnd FILL
XFILL_2_BUFX2_insert17 vdd gnd FILL
XFILL_1__724_ vdd gnd FILL
XFILL_1__1100_ vdd gnd FILL
XFILL_1__1031_ vdd gnd FILL
XFILL_1_BUFX2_insert3 vdd gnd FILL
XFILL_2__1140_ vdd gnd FILL
XFILL_0__811_ vdd gnd FILL
XFILL_0__742_ vdd gnd FILL
XFILL_1__1229_ vdd gnd FILL
XFILL_2__1071_ vdd gnd FILL
XFILL86550x7950 vdd gnd FILL
XFILL_2__1338_ vdd gnd FILL
XFILL_2__1269_ vdd gnd FILL
XFILL_2__1407_ vdd gnd FILL
X_1533_ _736_/Y Yout[1] vdd gnd BUFX2
X_1464_ _792_/Y _1515_/CLK _790_/A vdd gnd DFFPOSX1
X_1395_ _1395_/A _1395_/B _1395_/C _1402_/B vdd gnd AOI21X1
XFILL_2__971_ vdd gnd FILL
XFILL_1__1014_ vdd gnd FILL
XFILL_2__1123_ vdd gnd FILL
XFILL_0__725_ vdd gnd FILL
XFILL_2__1054_ vdd gnd FILL
X_1180_ _1192_/B _1180_/B _1180_/C _1188_/A vdd gnd NAND3X1
XFILL_0__1385_ vdd gnd FILL
XFILL_3__1094_ vdd gnd FILL
X_1516_ _1516_/D _1526_/CLK _773_/B vdd gnd DFFPOSX1
X_1378_ _1384_/C _1378_/B _1381_/A vdd gnd AND2X2
X_1447_ _751_/A _924_/A _1447_/C _1519_/D vdd gnd OAI21X1
XFILL_2__954_ vdd gnd FILL
XFILL_2__885_ vdd gnd FILL
X_960_ _970_/A _970_/B _970_/C _971_/C vdd gnd NAND3X1
X_891_ _933_/D _895_/B _933_/C _905_/C vdd gnd OAI21X1
XFILL_2__1106_ vdd gnd FILL
XFILL_0__1170_ vdd gnd FILL
XFILL_2__1037_ vdd gnd FILL
X_1232_ _1241_/A _1232_/B _1232_/C _1235_/C vdd gnd NAND3X1
X_1301_ _780_/B _917_/A _1301_/C _1306_/A vdd gnd OAI21X1
XFILL_1__972_ vdd gnd FILL
XFILL_0__1437_ vdd gnd FILL
XFILL_3__1215_ vdd gnd FILL
XBUFX2_insert4 _1526_/Q _917_/B vdd gnd BUFX2
X_1094_ _1094_/A _1100_/A _1096_/B vdd gnd XOR2X1
X_1163_ _1193_/C _1169_/A _1164_/C vdd gnd NAND2X1
XFILL_0__1299_ vdd gnd FILL
XFILL_0__1368_ vdd gnd FILL
XFILL_1_BUFX2_insert30 vdd gnd FILL
XFILL_0__990_ vdd gnd FILL
XFILL_2__937_ vdd gnd FILL
XFILL_2__799_ vdd gnd FILL
XFILL_2__868_ vdd gnd FILL
X_943_ _943_/A _999_/B _988_/A _989_/B vdd gnd OAI21X1
X_874_ _874_/A _874_/B _874_/C _878_/A vdd gnd NAND3X1
XFILL_0__1222_ vdd gnd FILL
XFILL_0__1153_ vdd gnd FILL
XFILL_0__1084_ vdd gnd FILL
XFILL_1__1400_ vdd gnd FILL
X_1146_ _1191_/A _1187_/B _1147_/B vdd gnd XOR2X1
X_1215_ _1215_/A _1215_/B _1215_/C _1252_/A vdd gnd AOI21X1
XFILL_1__955_ vdd gnd FILL
XFILL_1__886_ vdd gnd FILL
XFILL_1__1262_ vdd gnd FILL
XFILL_1__1331_ vdd gnd FILL
XFILL_1__1193_ vdd gnd FILL
X_1077_ _1101_/B _1101_/A _1085_/C _1091_/C vdd gnd NAND3X1
XFILL_2__1371_ vdd gnd FILL
XFILL_2__1440_ vdd gnd FILL
XFILL_1__1529_ vdd gnd FILL
XFILL_0__973_ vdd gnd FILL
XFILL_1__740_ vdd gnd FILL
X_788_ _815_/C _788_/B _789_/C vdd gnd NAND2X1
X_1000_ _999_/Y _996_/Y _998_/Y _1078_/A vdd gnd NAND3X1
X_857_ _893_/A _893_/B _881_/C _879_/B vdd gnd NAND3X1
X_926_ _979_/A _985_/B _929_/A _927_/C vdd gnd OAI21X1
XCLKBUF1_insert11 clk _1515_/CLK vdd gnd CLKBUF1
XFILL_0__1136_ vdd gnd FILL
XFILL_0__1205_ vdd gnd FILL
XFILL_0__1067_ vdd gnd FILL
X_1129_ _1129_/A _1129_/B _1129_/C _1130_/B vdd gnd AOI21X1
XFILL_1__938_ vdd gnd FILL
XFILL_1__869_ vdd gnd FILL
XFILL_1__1314_ vdd gnd FILL
XFILL_1__1245_ vdd gnd FILL
XFILL_1__1176_ vdd gnd FILL
XFILL_2__1423_ vdd gnd FILL
XFILL_2__1354_ vdd gnd FILL
XFILL_2__1285_ vdd gnd FILL
XFILL_0__887_ vdd gnd FILL
XFILL_0__956_ vdd gnd FILL
X_1480_ _1480_/D _1508_/CLK _1480_/Q vdd gnd DFFPOSX1
XFILL_3__1532_ vdd gnd FILL
XFILL_2_BUFX2_insert29 vdd gnd FILL
XFILL_2_BUFX2_insert18 vdd gnd FILL
XFILL_1__723_ vdd gnd FILL
X_909_ _909_/A _910_/C vdd gnd INVX1
XFILL_1__1030_ vdd gnd FILL
XFILL_0__1119_ vdd gnd FILL
XFILL_1_BUFX2_insert4 vdd gnd FILL
XFILL_0__741_ vdd gnd FILL
XFILL_0__810_ vdd gnd FILL
XFILL_1__1228_ vdd gnd FILL
XFILL_1__1159_ vdd gnd FILL
XFILL_2__1070_ vdd gnd FILL
XFILL85650x66450 vdd gnd FILL
XFILL_2__1406_ vdd gnd FILL
XFILL_2__1337_ vdd gnd FILL
XFILL_2__1268_ vdd gnd FILL
X_1532_ _730_/Y Yout[0] vdd gnd BUFX2
XFILL_2__1199_ vdd gnd FILL
XFILL_0__939_ vdd gnd FILL
X_1394_ _1394_/A _1394_/B _1395_/B vdd gnd NOR2X1
X_1463_ _789_/Y _1523_/CLK _787_/A vdd gnd DFFPOSX1
XFILL87150x7950 vdd gnd FILL
XFILL_2__970_ vdd gnd FILL
XFILL_1__1013_ vdd gnd FILL
XFILL_2__1053_ vdd gnd FILL
XFILL_2__1122_ vdd gnd FILL
XFILL_0__724_ vdd gnd FILL
XFILL_3__1162_ vdd gnd FILL
XFILL_0__1384_ vdd gnd FILL
X_1515_ _1515_/D _1515_/CLK _770_/B vdd gnd DFFPOSX1
X_1377_ _1392_/B _1384_/C vdd gnd INVX1
X_1446_ _751_/A Xin[1] _1447_/C vdd gnd NAND2X1
XFILL_2__953_ vdd gnd FILL
XFILL_2__884_ vdd gnd FILL
X_890_ _933_/A _988_/A _895_/B vdd gnd NOR2X1
XFILL_2__1105_ vdd gnd FILL
XFILL_2__1036_ vdd gnd FILL
X_1300_ _735_/D _967_/A _1309_/C vdd gnd NAND2X1
X_1231_ _1241_/B _1232_/B vdd gnd INVX1
XFILL_1__971_ vdd gnd FILL
X_1162_ _759_/A _1225_/B _1162_/C _1169_/A vdd gnd OAI21X1
XBUFX2_insert5 _1526_/Q _812_/A vdd gnd BUFX2
XFILL_0__1436_ vdd gnd FILL
X_1093_ _1212_/B _1212_/A _1100_/A vdd gnd NAND2X1
XFILL_0__1367_ vdd gnd FILL
XFILL_0__1298_ vdd gnd FILL
XFILL_1_BUFX2_insert20 vdd gnd FILL
X_1429_ _1437_/B _1435_/B _1429_/C _1510_/D vdd gnd OAI21X1
XFILL_1_BUFX2_insert31 vdd gnd FILL
XFILL_1_CLKBUF1_insert10 vdd gnd FILL
XFILL_2__936_ vdd gnd FILL
XFILL_2__798_ vdd gnd FILL
XFILL_2__867_ vdd gnd FILL
X_942_ _942_/A _998_/A _946_/A vdd gnd NAND2X1
X_873_ _874_/B _874_/C _874_/A _876_/C vdd gnd AOI21X1
XFILL_0__1221_ vdd gnd FILL
XFILL_0__1083_ vdd gnd FILL
XFILL_2__1019_ vdd gnd FILL
XFILL_0__1152_ vdd gnd FILL
XFILL_1__954_ vdd gnd FILL
XFILL_1__1330_ vdd gnd FILL
X_1145_ _1214_/A _1214_/B _1187_/B vdd gnd NAND2X1
X_1214_ _1214_/A _1214_/B _1214_/C _1215_/C vdd gnd NAND3X1
XFILL_1__885_ vdd gnd FILL
XFILL_0__1419_ vdd gnd FILL
XFILL_1__1192_ vdd gnd FILL
XFILL_1__1261_ vdd gnd FILL
X_1076_ _1130_/C _1106_/A _1106_/B _1101_/A vdd gnd NAND3X1
XFILL_2__1370_ vdd gnd FILL
XFILL_1__1528_ vdd gnd FILL
XFILL_0__972_ vdd gnd FILL
XFILL_2__919_ vdd gnd FILL
X_925_ Cin[3] _985_/B vdd gnd INVX2
X_787_ _787_/A _789_/B vdd gnd INVX1
X_856_ _881_/B _893_/B vdd gnd INVX1
XCLKBUF1_insert12 clk _1508_/CLK vdd gnd CLKBUF1
XFILL_0__1204_ vdd gnd FILL
XFILL_0__1135_ vdd gnd FILL
XFILL_0__1066_ vdd gnd FILL
XFILL_1__937_ vdd gnd FILL
XFILL_1__799_ vdd gnd FILL
XFILL_1__1313_ vdd gnd FILL
X_1128_ _1178_/A _1178_/B _1138_/C _1143_/A vdd gnd NAND3X1
X_1059_ _1120_/A _1113_/A vdd gnd INVX1
XFILL_1__868_ vdd gnd FILL
XFILL_1__1244_ vdd gnd FILL
XFILL_1__1175_ vdd gnd FILL
XFILL_2__1422_ vdd gnd FILL
XFILL_2__1353_ vdd gnd FILL
XFILL_2__1284_ vdd gnd FILL
XFILL_0__955_ vdd gnd FILL
XFILL_0__886_ vdd gnd FILL
XFILL_2_BUFX2_insert19 vdd gnd FILL
X_908_ _912_/A _908_/B _908_/C _969_/D vdd gnd NAND3X1
X_839_ _839_/A _874_/A vdd gnd INVX1
XFILL_0__1118_ vdd gnd FILL
XFILL_0__1049_ vdd gnd FILL
XFILL_1_BUFX2_insert5 vdd gnd FILL
XFILL_0__740_ vdd gnd FILL
XFILL_1__1227_ vdd gnd FILL
XFILL_1__1158_ vdd gnd FILL
XFILL_1__1089_ vdd gnd FILL
XFILL_2__1405_ vdd gnd FILL
XFILL_2__1336_ vdd gnd FILL
XFILL_2__1267_ vdd gnd FILL
XFILL_2__1198_ vdd gnd FILL
XFILL_0__938_ vdd gnd FILL
X_1462_ _786_/Y _1523_/CLK _784_/A vdd gnd DFFPOSX1
X_1531_ _757_/Y Xout[3] vdd gnd BUFX2
XFILL_0__869_ vdd gnd FILL
X_1393_ _1393_/A _1395_/C vdd gnd INVX1
XFILL_1__1012_ vdd gnd FILL
XFILL_2__1052_ vdd gnd FILL
XFILL_2__1121_ vdd gnd FILL
XFILL_0__723_ vdd gnd FILL
XFILL_0__1383_ vdd gnd FILL
XFILL_3__1230_ vdd gnd FILL
XFILL_2__1319_ vdd gnd FILL
X_1514_ _1514_/D _1526_/CLK _767_/A vdd gnd DFFPOSX1
X_1445_ _1523_/D _901_/A _1445_/C _1518_/D vdd gnd OAI21X1
X_1376_ _804_/B _1376_/B _1392_/B vdd gnd NOR2X1
XFILL_3__1359_ vdd gnd FILL
XFILL_2__952_ vdd gnd FILL
XFILL_2__883_ vdd gnd FILL
XFILL_2__1104_ vdd gnd FILL
XFILL_2__1035_ vdd gnd FILL
XFILL_1__970_ vdd gnd FILL
XBUFX2_insert6 _1526_/Q _813_/A vdd gnd BUFX2
X_1230_ _1239_/B _1239_/A _1241_/B vdd gnd XOR2X1
X_1161_ _1193_/A _1227_/B _1161_/C _1162_/C vdd gnd OAI21X1
X_1092_ _1092_/A _1092_/B _1092_/C _1212_/B vdd gnd NAND3X1
XFILL_3__848_ vdd gnd FILL
XFILL_0__1366_ vdd gnd FILL
XFILL_0__1435_ vdd gnd FILL
XFILL_0__1297_ vdd gnd FILL
XFILL_1_BUFX2_insert21 vdd gnd FILL
X_1428_ _728_/A _728_/B _779_/B _1429_/C vdd gnd OAI21X1
XFILL_1_BUFX2_insert32 vdd gnd FILL
XFILL_1_CLKBUF1_insert11 vdd gnd FILL
X_1359_ _1374_/B _1362_/A _1361_/B vdd gnd AND2X2
XFILL_2__935_ vdd gnd FILL
XFILL_2__866_ vdd gnd FILL
XFILL_2__797_ vdd gnd FILL
X_941_ _994_/A _941_/B _998_/A vdd gnd AND2X2
X_872_ _919_/B _909_/A _910_/B _874_/C vdd gnd NAND3X1
XFILL_0__1220_ vdd gnd FILL
XFILL_0__1082_ vdd gnd FILL
XFILL_2__1018_ vdd gnd FILL
XFILL_0__1151_ vdd gnd FILL
XFILL87150x150 vdd gnd FILL
X_1213_ _969_/Y _1213_/B _1213_/C _1215_/A vdd gnd NAND3X1
XFILL_1__953_ vdd gnd FILL
XFILL_1__1260_ vdd gnd FILL
X_1075_ _1075_/A _1133_/B _1075_/C _1106_/B vdd gnd OAI21X1
X_1144_ _1144_/A _1144_/B _1144_/C _1214_/B vdd gnd OAI21X1
XFILL_1__884_ vdd gnd FILL
XFILL_0__1349_ vdd gnd FILL
XFILL_0__1418_ vdd gnd FILL
XFILL_1__1191_ vdd gnd FILL
XFILL_1__1389_ vdd gnd FILL
XFILL_1__1527_ vdd gnd FILL
XFILL_0__971_ vdd gnd FILL
XFILL_2__849_ vdd gnd FILL
XFILL_2__918_ vdd gnd FILL
X_924_ _924_/A _979_/B _929_/B _927_/B vdd gnd OAI21X1
X_786_ _786_/A _786_/B _786_/C _786_/Y vdd gnd OAI21X1
X_855_ _865_/C _883_/A _881_/C vdd gnd NAND2X1
XCLKBUF1_insert13 clk _1526_/CLK vdd gnd CLKBUF1
XFILL_0__1203_ vdd gnd FILL
XFILL_0__1134_ vdd gnd FILL
XFILL_0__1065_ vdd gnd FILL
XFILL_1__936_ vdd gnd FILL
XFILL_1__867_ vdd gnd FILL
XFILL_1__798_ vdd gnd FILL
XFILL_1__1243_ vdd gnd FILL
XFILL_1__1312_ vdd gnd FILL
X_1127_ _1168_/B _1168_/A _1152_/C _1178_/B vdd gnd NAND3X1
X_1058_ _1120_/B _1133_/A _1120_/A _1129_/A vdd gnd OAI21X1
XFILL86550x50850 vdd gnd FILL
XFILL_1__1174_ vdd gnd FILL
XFILL_2__1352_ vdd gnd FILL
XFILL_2__1421_ vdd gnd FILL
XFILL_2__1283_ vdd gnd FILL
XFILL_0__954_ vdd gnd FILL
XFILL_0__885_ vdd gnd FILL
X_907_ _921_/B _955_/C _921_/A _912_/A vdd gnd NAND3X1
X_838_ _840_/C _840_/B _840_/A _839_/A vdd gnd NAND3X1
X_769_ _769_/A _771_/B vdd gnd INVX1
XFILL_0__1117_ vdd gnd FILL
XFILL_0__1048_ vdd gnd FILL
XFILL_1_BUFX2_insert6 vdd gnd FILL
XFILL_1__919_ vdd gnd FILL
XFILL_1__1226_ vdd gnd FILL
XFILL_1__1157_ vdd gnd FILL
XFILL_1__1088_ vdd gnd FILL
XFILL_2__1335_ vdd gnd FILL
XFILL_2__1404_ vdd gnd FILL
XFILL_2__1266_ vdd gnd FILL
XFILL_2__1197_ vdd gnd FILL
XFILL_0__937_ vdd gnd FILL
X_1392_ _1392_/A _1392_/B _1392_/C _1393_/A vdd gnd AOI21X1
XFILL_0__799_ vdd gnd FILL
X_1461_ _783_/Y _1525_/CLK _781_/A vdd gnd DFFPOSX1
X_1530_ _754_/Y Xout[2] vdd gnd BUFX2
XFILL_0__868_ vdd gnd FILL
XFILL_1__1011_ vdd gnd FILL
XFILL86550x74250 vdd gnd FILL
XFILL_1__1209_ vdd gnd FILL
XFILL_2__1120_ vdd gnd FILL
XFILL_2__1051_ vdd gnd FILL
XFILL_3__795_ vdd gnd FILL
XFILL_0__1382_ vdd gnd FILL
XFILL_2__1249_ vdd gnd FILL
XFILL_2__1318_ vdd gnd FILL
XFILL_0__1451_ vdd gnd FILL
X_1375_ _804_/B _1376_/B _1378_/B vdd gnd NAND2X1
X_1513_ _1513_/D _1521_/CLK _788_/B vdd gnd DFFPOSX1
X_1444_ _1523_/D Xin[0] _1445_/C vdd gnd NAND2X1
XFILL_3__1427_ vdd gnd FILL
XFILL_2__951_ vdd gnd FILL
XFILL_2__882_ vdd gnd FILL
XFILL_2__1103_ vdd gnd FILL
XFILL_2__1034_ vdd gnd FILL
XFILL_3__916_ vdd gnd FILL
X_1160_ _997_/A Cin[4] _1227_/B vdd gnd NAND2X1
X_1091_ _1102_/A _1091_/B _1091_/C _1092_/C vdd gnd NAND3X1
XFILL_0__1365_ vdd gnd FILL
XFILL_0__1296_ vdd gnd FILL
XFILL_0__1434_ vdd gnd FILL
X_1358_ _1373_/B _1362_/A vdd gnd INVX1
XFILL_1_BUFX2_insert22 vdd gnd FILL
X_1427_ _765_/B _1435_/B vdd gnd INVX1
XFILL_1_BUFX2_insert33 vdd gnd FILL
XFILL_1_CLKBUF1_insert12 vdd gnd FILL
X_1289_ _780_/B _917_/A _1291_/A vdd gnd NAND2X1
XFILL_2__796_ vdd gnd FILL
XFILL_2__934_ vdd gnd FILL
XFILL_2__865_ vdd gnd FILL
X_940_ _947_/C _989_/A vdd gnd INVX1
X_871_ _871_/A _871_/B _871_/C _910_/B vdd gnd OAI21X1
XFILL_0__1150_ vdd gnd FILL
XFILL_0__1081_ vdd gnd FILL
XFILL_2__1017_ vdd gnd FILL
X_1212_ _1212_/A _1212_/B _1213_/B vdd gnd AND2X2
XFILL_1__952_ vdd gnd FILL
XFILL_1__883_ vdd gnd FILL
XFILL_0__1417_ vdd gnd FILL
X_1143_ _1143_/A _1143_/B _1179_/A _1144_/B vdd gnd AOI21X1
X_1074_ _1129_/C _1129_/B _1129_/A _1130_/C vdd gnd NAND3X1
XFILL_0__1348_ vdd gnd FILL
XFILL_0__1279_ vdd gnd FILL
XFILL_1__1190_ vdd gnd FILL
XFILL_1__1388_ vdd gnd FILL
XFILL_0__970_ vdd gnd FILL
XFILL_2__917_ vdd gnd FILL
XFILL_2__779_ vdd gnd FILL
XFILL_2__848_ vdd gnd FILL
X_854_ _978_/A _884_/B _883_/A vdd gnd AND2X2
X_923_ _980_/A Cin[3] _929_/B vdd gnd AND2X2
X_785_ _815_/C _785_/B _786_/C vdd gnd NAND2X1
XCLKBUF1_insert14 clk _1523_/CLK vdd gnd CLKBUF1
XFILL_0__1202_ vdd gnd FILL
XFILL_0__1133_ vdd gnd FILL
XFILL_0__1064_ vdd gnd FILL
XFILL_1__797_ vdd gnd FILL
X_1126_ _1133_/C _1132_/B _1168_/B vdd gnd NAND2X1
XFILL_1__935_ vdd gnd FILL
XFILL_1__866_ vdd gnd FILL
XFILL_1__1311_ vdd gnd FILL
XFILL_1__1242_ vdd gnd FILL
X_1057_ _997_/A _997_/B _755_/A _993_/B _1120_/B vdd gnd AOI22X1
XFILL_3__1109_ vdd gnd FILL
XFILL_1__1173_ vdd gnd FILL
XFILL_2__1420_ vdd gnd FILL
XFILL_2__1351_ vdd gnd FILL
XFILL_2__1282_ vdd gnd FILL
XFILL_1_CLKBUF1_insert7 vdd gnd FILL
XFILL_0__953_ vdd gnd FILL
XFILL_0__884_ vdd gnd FILL
X_768_ _786_/A _768_/B _768_/C _768_/Y vdd gnd OAI21X1
X_906_ _955_/A _921_/B vdd gnd INVX1
X_837_ _847_/B _847_/A _859_/C _840_/B vdd gnd NAND3X1
XFILL_0__1116_ vdd gnd FILL
XFILL_0__1047_ vdd gnd FILL
XFILL86850x46950 vdd gnd FILL
XFILL_1__849_ vdd gnd FILL
X_1109_ _994_/A Cin[4] _1150_/B vdd gnd AND2X2
XFILL_1__918_ vdd gnd FILL
XFILL_1__1225_ vdd gnd FILL
XFILL_1__1156_ vdd gnd FILL
XFILL_1__1087_ vdd gnd FILL
XFILL_2__1334_ vdd gnd FILL
XFILL_2__1403_ vdd gnd FILL
XFILL_2__1265_ vdd gnd FILL
XFILL_2__1196_ vdd gnd FILL
XFILL_0__936_ vdd gnd FILL
XFILL_0__867_ vdd gnd FILL
X_1391_ _733_/B _1391_/B _1391_/C _1391_/D _1499_/D vdd gnd AOI22X1
XFILL_0__798_ vdd gnd FILL
X_1460_ _780_/Y _1522_/CLK _778_/A vdd gnd DFFPOSX1
XFILL_3__1374_ vdd gnd FILL
XFILL_1__1010_ vdd gnd FILL
XFILL86850x58650 vdd gnd FILL
XFILL_1__1208_ vdd gnd FILL
XFILL_1__1139_ vdd gnd FILL
XFILL_2__1050_ vdd gnd FILL
XFILL_3__863_ vdd gnd FILL
XFILL_0__1450_ vdd gnd FILL
XFILL_0__1381_ vdd gnd FILL
XFILL_2__1248_ vdd gnd FILL
XFILL_2__1317_ vdd gnd FILL
X_1512_ _1512_/D _1523_/CLK _785_/B vdd gnd DFFPOSX1
XFILL_2__1179_ vdd gnd FILL
XFILL_0__919_ vdd gnd FILL
X_1374_ _1374_/A _1374_/B _1374_/C _1395_/A vdd gnd OAI21X1
X_1443_ _728_/A _1443_/B _1443_/C _1517_/D vdd gnd AOI21X1
XFILL_2__950_ vdd gnd FILL
XFILL_2__881_ vdd gnd FILL
XFILL_2__1033_ vdd gnd FILL
XFILL_2__1102_ vdd gnd FILL
XFILL_0__1433_ vdd gnd FILL
X_1090_ _1090_/A _1102_/C _1090_/C _1092_/B vdd gnd NAND3X1
XFILL_0__1364_ vdd gnd FILL
XFILL_0__1295_ vdd gnd FILL
X_1288_ _729_/D _1350_/A _1299_/C vdd gnd NAND2X1
X_1357_ _1357_/A _1372_/B _1373_/B vdd gnd NOR2X1
XFILL_1_BUFX2_insert23 vdd gnd FILL
X_1426_ _1443_/B _1426_/B _1426_/C _1509_/D vdd gnd AOI21X1
XFILL_1_CLKBUF1_insert13 vdd gnd FILL
XFILL_2__933_ vdd gnd FILL
XFILL_2__795_ vdd gnd FILL
XFILL_2__864_ vdd gnd FILL
X_870_ _879_/C _879_/B _879_/A _909_/A vdd gnd NAND3X1
XFILL_0__1080_ vdd gnd FILL
XFILL_2__1016_ vdd gnd FILL
X_1211_ _1233_/A _1242_/B _1218_/B vdd gnd NAND2X1
XFILL_1__951_ vdd gnd FILL
X_1142_ _1142_/A _1179_/C _1142_/C _1144_/A vdd gnd AOI21X1
XFILL_1__882_ vdd gnd FILL
X_999_ _999_/A _999_/B _999_/C _999_/Y vdd gnd OAI21X1
XFILL_0__1416_ vdd gnd FILL
X_1073_ _1073_/A _1103_/B _1106_/A vdd gnd AND2X2
XFILL_0__1347_ vdd gnd FILL
XFILL_0__1278_ vdd gnd FILL
XFILL_3__1056_ vdd gnd FILL
X_1409_ Yin[1] _1439_/B vdd gnd INVX1
XFILL_1__1387_ vdd gnd FILL
XFILL_2__916_ vdd gnd FILL
XFILL_2__778_ vdd gnd FILL
XFILL_2__847_ vdd gnd FILL
X_784_ _784_/A _786_/B vdd gnd INVX1
X_853_ _881_/A _893_/A vdd gnd INVX1