* NGSPICE file created from fir_hls.ext - technology: scmos

.subckt OAI21X1 A B C Y vdd gnd
M1000 Y C a_7_14# gnd nfet w=6u l=0.6u
+  ad=12.6p pd=16.2u as=7.2p ps=8.4u
M1001 a_30_146# A vdd vdd pfet w=12u l=0.6u
+  ad=3.6p pd=12.6u as=25.2p ps=28.2u
M1002 vdd C Y vdd pfet w=6u l=0.6u
+  ad=12.6p pd=16.2u as=14.4p ps=14.7u
M1003 gnd A a_7_14# gnd nfet w=6u l=0.6u
+  ad=7.2p pd=8.4u as=12.6p ps=16.2u
M1004 Y B a_30_146# vdd pfet w=12u l=0.6u
+  ad=14.4p pd=14.7u as=3.6p ps=12.6u
M1005 a_7_14# B gnd gnd nfet w=6u l=0.6u
+  ad=7.2p pd=8.4u as=7.2p ps=8.4u
.ends

.subckt DFFPOSX1 D CLK Q vdd gnd
M1000 vdd Q a_189_206# vdd pfet w=3u l=0.6u
+  ad=10.125p pd=14.7u as=0.9p ps=3.6u
M1001 a_83_186# a_11_14# a_59_14# vdd pfet w=6u l=0.6u
+  ad=3.6p pd=7.2u as=7.2p ps=8.4u
M1002 a_87_10# a_59_14# gnd gnd nfet w=3u l=0.6u
+  ad=6.3p pd=10.2u as=4.05p ps=5.7u
M1003 gnd CLK a_11_14# gnd nfet w=6u l=0.6u
+  ad=5.85p pd=8.4u as=12.6p ps=16.2u
M1004 gnd a_87_10# a_81_14# gnd nfet w=3u l=0.6u
+  ad=4.05p pd=5.7u as=1.35p ps=3.9u
M1005 a_159_14# a_87_10# gnd gnd nfet w=3u l=0.6u
+  ad=0.9p pd=3.6u as=6.3p ps=10.2u
M1006 a_49_186# D vdd vdd pfet w=6u l=0.6u
+  ad=4.5p pd=7.5u as=11.25p ps=14.4u
M1007 vdd a_87_10# a_83_186# vdd pfet w=6u l=0.6u
+  ad=7.2p pd=8.4u as=3.6p ps=7.2u
M1008 Q a_167_14# gnd gnd nfet w=6u l=0.6u
+  ad=12.6p pd=16.2u as=6.975p ps=8.7u
M1009 Q a_167_14# vdd vdd pfet w=12u l=0.6u
+  ad=25.2p pd=28.2u as=10.125p ps=14.7u
M1010 a_167_14# CLK a_159_14# gnd nfet w=3u l=0.6u
+  ad=3.6p pd=5.4u as=0.9p ps=3.6u
M1011 a_49_14# D gnd gnd nfet w=3u l=0.6u
+  ad=1.35p pd=3.9u as=5.85p ps=8.4u
M1012 a_87_10# a_59_14# vdd vdd pfet w=6u l=0.6u
+  ad=12.6p pd=16.2u as=7.2p ps=8.4u
M1013 a_59_14# CLK a_49_186# vdd pfet w=6u l=0.6u
+  ad=7.2p pd=8.4u as=4.5p ps=7.5u
M1014 a_161_186# a_87_10# vdd vdd pfet w=6u l=0.6u
+  ad=1.8p pd=6.6u as=12.6p ps=16.2u
M1015 a_189_206# CLK a_167_14# vdd pfet w=3u l=0.6u
+  ad=0.9p pd=3.6u as=6.075p ps=8.4u
M1016 a_59_14# a_11_14# a_49_14# gnd nfet w=3u l=0.6u
+  ad=4.05p pd=5.7u as=1.35p ps=3.9u
M1017 a_187_14# a_11_14# a_167_14# gnd nfet w=3u l=0.6u
+  ad=1.35p pd=3.9u as=3.6p ps=5.4u
M1018 vdd CLK a_11_14# vdd pfet w=12u l=0.6u
+  ad=11.25p pd=14.4u as=25.2p ps=28.2u
M1019 gnd Q a_187_14# gnd nfet w=3u l=0.6u
+  ad=6.975p pd=8.7u as=1.35p ps=3.9u
M1020 a_167_14# a_11_14# a_161_186# vdd pfet w=6u l=0.6u
+  ad=6.075p pd=8.4u as=1.8p ps=6.6u
M1021 a_81_14# CLK a_59_14# gnd nfet w=3u l=0.6u
+  ad=1.35p pd=3.9u as=4.05p ps=5.7u
.ends

.subckt INVX1 A Y vdd gnd
M1000 Y A gnd gnd nfet w=3u l=0.6u
+  ad=6.3p pd=10.2u as=6.3p ps=10.2u
M1001 Y A vdd vdd pfet w=6u l=0.6u
+  ad=12.6p pd=16.2u as=12.6p ps=16.2u
.ends

.subckt NAND2X1 A B Y vdd gnd
M1000 a_27_14# A gnd gnd nfet w=6u l=0.6u
+  ad=2.7p pd=6.9u as=12.6p ps=16.2u
M1001 Y B a_27_14# gnd nfet w=6u l=0.6u
+  ad=12.6p pd=16.2u as=2.7p ps=6.9u
M1002 vdd B Y vdd pfet w=6u l=0.6u
+  ad=12.6p pd=16.2u as=7.2p ps=8.4u
M1003 Y A vdd vdd pfet w=6u l=0.6u
+  ad=7.2p pd=8.4u as=12.6p ps=16.2u
.ends

.subckt NOR2X1 A B Y vdd gnd
M1000 a_25_146# A vdd vdd pfet w=12u l=0.6u
+  ad=3.6p pd=12.6u as=25.2p ps=28.2u
M1001 Y A gnd gnd nfet w=3u l=0.6u
+  ad=3.6p pd=5.4u as=6.3p ps=10.2u
M1002 Y B a_25_146# vdd pfet w=12u l=0.6u
+  ad=25.2p pd=28.2u as=3.6p ps=12.6u
M1003 gnd B Y gnd nfet w=3u l=0.6u
+  ad=6.3p pd=10.2u as=3.6p ps=5.4u
.ends

.subckt OR2X2 A B Y vdd gnd
M1000 Y a_7_146# gnd gnd nfet w=6u l=0.6u
+  ad=12.6p pd=16.2u as=6.3p ps=8.4u
M1001 a_25_146# A a_7_146# vdd pfet w=12u l=0.6u
+  ad=5.4p pd=12.9u as=25.2p ps=28.2u
M1002 a_7_146# A gnd gnd nfet w=3u l=0.6u
+  ad=3.6p pd=5.4u as=6.3p ps=10.2u
M1003 Y a_7_146# vdd vdd pfet w=12u l=0.6u
+  ad=25.2p pd=28.2u as=14.4p ps=14.4u
M1004 gnd B a_7_146# gnd nfet w=3u l=0.6u
+  ad=6.3p pd=8.4u as=3.6p ps=5.4u
M1005 vdd B a_25_146# vdd pfet w=12u l=0.6u
+  ad=14.4p pd=14.4u as=5.4p ps=12.9u
.ends

.subckt NAND3X1 A B C Y vdd gnd
M1000 Y C a_34_14# gnd nfet w=9u l=0.6u
+  ad=18.9p pd=22.2u as=2.7p ps=9.6u
M1001 a_26_14# A gnd gnd nfet w=9u l=0.6u
+  ad=2.7p pd=9.6u as=18.9p ps=22.2u
M1002 vdd B Y vdd pfet w=6u l=0.6u
+  ad=7.2p pd=8.4u as=7.2p ps=8.4u
M1003 a_34_14# B a_26_14# gnd nfet w=9u l=0.6u
+  ad=2.7p pd=9.6u as=2.7p ps=9.6u
M1004 Y C vdd vdd pfet w=6u l=0.6u
+  ad=12.6p pd=16.2u as=7.2p ps=8.4u
M1005 Y A vdd vdd pfet w=6u l=0.6u
+  ad=7.2p pd=8.4u as=12.6p ps=16.2u
.ends

.subckt MUX2X1 A B S Y vdd gnd
M1000 a_75_22# S Y gnd nfet w=6u l=0.6u
+  ad=2.7p pd=6.9u as=7.2p ps=8.4u
M1001 gnd S a_7_22# gnd nfet w=3u l=0.6u
+  ad=6.3p pd=8.4u as=6.3p ps=10.2u
M1002 Y S a_45_138# vdd pfet w=12u l=0.6u
+  ad=14.49p pd=15.6u as=5.4p ps=12.9u
M1003 gnd A a_75_22# gnd nfet w=6u l=0.6u
+  ad=12.6p pd=16.2u as=2.7p ps=6.9u
M1004 vdd A a_75_146# vdd pfet w=12u l=0.6u
+  ad=25.2p pd=28.2u as=5.4p ps=12.9u
M1005 a_45_138# B vdd vdd pfet w=12u l=0.6u
+  ad=5.4p pd=12.9u as=11.7p ps=14.4u
M1006 a_45_22# B gnd gnd nfet w=6u l=0.6u
+  ad=2.7p pd=6.9u as=6.3p ps=8.4u
M1007 Y a_7_22# a_45_22# gnd nfet w=6u l=0.6u
+  ad=7.2p pd=8.4u as=2.7p ps=6.9u
M1008 a_75_146# a_7_22# Y vdd pfet w=12u l=0.6u
+  ad=5.4p pd=12.9u as=14.49p ps=15.6u
M1009 vdd S a_7_22# vdd pfet w=6u l=0.6u
+  ad=11.7p pd=14.4u as=12.6p ps=16.2u
.ends

.subckt OAI22X1 A B C D Y vdd gnd
M1000 Y D a_7_14# gnd nfet w=6u l=0.6u
+  ad=7.2p pd=8.4u as=7.2p ps=8.4u
M1001 a_25_146# A vdd vdd pfet w=12u l=0.6u
+  ad=5.4p pd=12.9u as=25.2p ps=28.2u
M1002 a_65_146# D Y vdd pfet w=12u l=0.6u
+  ad=5.4p pd=12.9u as=23.4p ps=15.9u
M1003 gnd A a_7_14# gnd nfet w=6u l=0.6u
+  ad=7.2p pd=8.4u as=12.6p ps=16.2u
M1004 a_7_14# C Y gnd nfet w=6u l=0.6u
+  ad=12.6p pd=16.2u as=7.2p ps=8.4u
M1005 a_7_14# B gnd gnd nfet w=6u l=0.6u
+  ad=7.2p pd=8.4u as=7.2p ps=8.4u
M1006 Y B a_25_146# vdd pfet w=12u l=0.6u
+  ad=23.4p pd=15.9u as=5.4p ps=12.9u
M1007 vdd C a_65_146# vdd pfet w=12u l=0.6u
+  ad=25.2p pd=28.2u as=5.4p ps=12.9u
.ends

.subckt AOI21X1 A B C Y vdd gnd
M1000 vdd A a_7_146# vdd pfet w=12u l=0.6u
+  ad=14.4p pd=14.4u as=25.2p ps=28.2u
M1001 Y C a_7_146# vdd pfet w=12u l=0.6u
+  ad=25.2p pd=28.2u as=14.4p ps=14.4u
M1002 a_28_14# A gnd gnd nfet w=6u l=0.6u
+  ad=1.8p pd=6.6u as=12.6p ps=16.2u
M1003 Y B a_28_14# gnd nfet w=6u l=0.6u
+  ad=7.2p pd=8.7u as=1.8p ps=6.6u
M1004 a_7_146# B vdd vdd pfet w=12u l=0.6u
+  ad=14.4p pd=14.4u as=14.4p ps=14.4u
M1005 gnd C Y gnd nfet w=3u l=0.6u
+  ad=6.3p pd=10.2u as=7.2p ps=8.7u
.ends

.subckt AOI22X1 A B C D Y vdd gnd
M1000 gnd C a_56_14# gnd nfet w=6u l=0.6u
+  ad=12.6p pd=16.2u as=1.8p ps=6.6u
M1001 vdd A a_7_146# vdd pfet w=12u l=0.6u
+  ad=14.4p pd=14.4u as=25.2p ps=28.2u
M1002 Y D a_7_146# vdd pfet w=12u l=0.6u
+  ad=14.4p pd=14.4u as=14.4p ps=14.4u
M1003 a_28_14# A gnd gnd nfet w=6u l=0.6u
+  ad=1.8p pd=6.6u as=12.6p ps=16.2u
M1004 Y B a_28_14# gnd nfet w=6u l=0.6u
+  ad=7.2p pd=8.4u as=1.8p ps=6.6u
M1005 a_7_146# C Y vdd pfet w=12u l=0.6u
+  ad=25.2p pd=28.2u as=14.4p ps=14.4u
M1006 a_7_146# B vdd vdd pfet w=12u l=0.6u
+  ad=14.4p pd=14.4u as=14.4p ps=14.4u
M1007 a_56_14# D Y gnd nfet w=6u l=0.6u
+  ad=1.8p pd=6.6u as=7.2p ps=8.4u
.ends

.subckt INVX4 A Y vdd gnd
M1000 Y A vdd vdd pfet w=12u l=0.6u
+  ad=14.4p pd=14.4u as=25.2p ps=28.2u
M1001 Y A gnd gnd nfet w=6u l=0.6u
+  ad=7.2p pd=8.4u as=12.6p ps=16.2u
M1002 gnd A Y gnd nfet w=6u l=0.6u
+  ad=12.6p pd=16.2u as=7.2p ps=8.4u
M1003 vdd A Y vdd pfet w=12u l=0.6u
+  ad=25.2p pd=28.2u as=14.4p ps=14.4u
.ends

.subckt AND2X2 A B Y vdd gnd
M1000 a_25_14# A a_7_14# gnd nfet w=6u l=0.6u
+  ad=2.7p pd=6.9u as=12.6p ps=16.2u
M1001 gnd B a_25_14# gnd nfet w=6u l=0.6u
+  ad=7.2p pd=8.4u as=2.7p ps=6.9u
M1002 vdd B a_7_14# vdd pfet w=6u l=0.6u
+  ad=14.4p pd=14.7u as=8.1p ps=8.7u
M1003 Y a_7_14# gnd gnd nfet w=6u l=0.6u
+  ad=12.6p pd=16.2u as=7.2p ps=8.4u
M1004 Y a_7_14# vdd vdd pfet w=12u l=0.6u
+  ad=25.2p pd=28.2u as=14.4p ps=14.7u
M1005 a_7_14# A vdd vdd pfet w=6u l=0.6u
+  ad=8.1p pd=8.7u as=12.6p ps=16.2u
.ends

.subckt INVX2 A Y vdd gnd
M1000 Y A vdd vdd pfet w=12u l=0.6u
+  ad=25.2p pd=28.2u as=25.2p ps=28.2u
M1001 Y A gnd gnd nfet w=6u l=0.6u
+  ad=12.6p pd=16.2u as=12.6p ps=16.2u
.ends

.subckt CLKBUF1 A Y vdd gnd
M1000 Y a_105_14# vdd vdd pfet w=12u l=0.6u
+  ad=14.4p pd=14.4u as=14.4p ps=14.4u
M1001 a_65_14# a_25_14# gnd gnd nfet w=6u l=0.6u
+  ad=7.2p pd=8.4u as=7.2p ps=8.4u
M1002 a_105_14# a_65_14# vdd vdd pfet w=12u l=0.6u
+  ad=14.4p pd=14.4u as=14.4p ps=14.4u
M1003 Y a_105_14# gnd gnd nfet w=6u l=0.6u
+  ad=7.2p pd=8.4u as=7.2p ps=8.4u
M1004 a_25_14# A vdd vdd pfet w=12u l=0.6u
+  ad=14.4p pd=14.4u as=25.2p ps=28.2u
M1005 a_65_14# a_25_14# vdd vdd pfet w=12u l=0.6u
+  ad=14.4p pd=14.4u as=14.4p ps=14.4u
M1006 a_25_14# A gnd gnd nfet w=6u l=0.6u
+  ad=7.2p pd=8.4u as=12.6p ps=16.2u
M1007 gnd a_25_14# a_65_14# gnd nfet w=6u l=0.6u
+  ad=7.2p pd=8.4u as=7.2p ps=8.4u
M1008 a_105_14# a_65_14# gnd gnd nfet w=6u l=0.6u
+  ad=7.2p pd=8.4u as=7.2p ps=8.4u
M1009 gnd a_105_14# Y gnd nfet w=6u l=0.6u
+  ad=12.6p pd=16.2u as=7.2p ps=8.4u
M1010 vdd a_65_14# a_105_14# vdd pfet w=12u l=0.6u
+  ad=14.4p pd=14.4u as=14.4p ps=14.4u
M1011 vdd a_105_14# Y vdd pfet w=12u l=0.6u
+  ad=25.2p pd=28.2u as=14.4p ps=14.4u
M1012 vdd a_25_14# a_65_14# vdd pfet w=12u l=0.6u
+  ad=14.4p pd=14.4u as=14.4p ps=14.4u
M1013 gnd A a_25_14# gnd nfet w=6u l=0.6u
+  ad=7.2p pd=8.4u as=7.2p ps=8.4u
M1014 vdd A a_25_14# vdd pfet w=12u l=0.6u
+  ad=14.4p pd=14.4u as=14.4p ps=14.4u
M1015 gnd a_65_14# a_105_14# gnd nfet w=6u l=0.6u
+  ad=7.2p pd=8.4u as=7.2p ps=8.4u
.ends

.subckt BUFX2 A Y vdd gnd
M1000 Y a_7_14# vdd vdd pfet w=12u l=0.6u
+  ad=25.2p pd=28.2u as=14.4p ps=14.7u
M1001 gnd A a_7_14# gnd nfet w=3u l=0.6u
+  ad=7.2p pd=8.7u as=6.3p ps=10.2u
M1002 Y a_7_14# gnd gnd nfet w=6u l=0.6u
+  ad=12.6p pd=16.2u as=7.2p ps=8.7u
M1003 vdd A a_7_14# vdd pfet w=6u l=0.6u
+  ad=14.4p pd=14.7u as=12.6p ps=16.2u
.ends

.subckt NOR3X1 A B C Y vdd gnd
M1000 gnd B Y gnd nfet w=3u l=0.6u
+  ad=3.6p pd=5.4u as=3.6p ps=5.4u
M1001 a_7_166# A vdd vdd pfet w=9u l=0.6u
+  ad=10.8p pd=11.4u as=10.8p ps=11.4u
M1002 a_7_166# B a_65_166# vdd pfet w=9u l=0.6u
+  ad=18.9p pd=22.2u as=10.8p ps=11.4u
M1003 a_65_166# C Y vdd pfet w=9u l=0.6u
+  ad=18.9p pd=22.2u as=10.8p ps=11.4u
M1004 Y C gnd gnd nfet w=3u l=0.6u
+  ad=6.3p pd=10.2u as=3.6p ps=5.4u
M1005 a_65_166# B a_7_166# vdd pfet w=9u l=0.6u
+  ad=10.8p pd=11.4u as=10.8p ps=11.4u
M1006 vdd A a_7_166# vdd pfet w=9u l=0.6u
+  ad=10.8p pd=11.4u as=18.9p ps=22.2u
M1007 Y C a_65_166# vdd pfet w=9u l=0.6u
+  ad=10.8p pd=11.4u as=18.9p ps=22.2u
M1008 Y A gnd gnd nfet w=3u l=0.6u
+  ad=3.6p pd=5.4u as=7.2p ps=10.8u
.ends

.subckt INVX8 A Y vdd gnd
M1000 Y A gnd gnd nfet w=6u l=0.6u
+  ad=7.2p pd=8.4u as=7.2p ps=8.4u
M1001 Y A vdd vdd pfet w=12u l=0.6u
+  ad=14.4p pd=14.4u as=25.2p ps=28.2u
M1002 Y A vdd vdd pfet w=12u l=0.6u
+  ad=14.4p pd=14.4u as=14.4p ps=14.4u
M1003 Y A gnd gnd nfet w=6u l=0.6u
+  ad=7.2p pd=8.4u as=12.6p ps=16.2u
M1004 gnd A Y gnd nfet w=6u l=0.6u
+  ad=12.6p pd=16.2u as=7.2p ps=8.4u
M1005 vdd A Y vdd pfet w=12u l=0.6u
+  ad=25.2p pd=28.2u as=14.4p ps=14.4u
M1006 gnd A Y gnd nfet w=6u l=0.6u
+  ad=7.2p pd=8.4u as=7.2p ps=8.4u
M1007 vdd A Y vdd pfet w=12u l=0.6u
+  ad=14.4p pd=14.4u as=14.4p ps=14.4u
.ends

.subckt fir_hls gnd vdd clk ready rst x[7] x[6] x[5] x[4] x[3] x[2] x[1] x[0] y[7]
+ y[6] y[5] y[4] y[3] y[2] y[1] y[0]
X_2037_ _2045_/A _2045_/B _2044_/A _2051_/B vdd gnd OAI21X1
X_2106_ _2106_/A _2106_/B _2106_/C _2169_/A vdd gnd OAI21X1
X_3086_ _3086_/D _3099_/CLK _3086_/Q vdd gnd DFFPOSX1
X_2939_ _3090_/Q _2950_/B vdd gnd INVX1
X_1606_ _1690_/Q _1630_/B _1658_/A vdd gnd NAND2X1
X_2655_ _2665_/A _2655_/B _2656_/C vdd gnd NOR2X1
X_2724_ _3033_/Q _2740_/B _2726_/D vdd gnd NOR2X1
X_1468_ _1468_/A _1692_/Q _1469_/A vdd gnd OR2X2
X_1537_ _1559_/Q _1555_/B _1537_/C _1545_/A vdd gnd NAND3X1
X_2586_ _3062_/Q _3094_/Q _2633_/S _2588_/B vdd gnd MUX2X1
X_3069_ _3069_/D _3101_/CLK _3069_/Q vdd gnd DFFPOSX1
X_2440_ _2440_/D _2535_/CLK _2440_/Q vdd gnd DFFPOSX1
X_2371_ _2386_/A _2371_/B _2385_/A _2375_/C vdd gnd OAI21X1
X_2569_ _3034_/Q _2581_/B _2571_/C vdd gnd NOR2X1
X_2638_ _3075_/Q _3059_/Q _2638_/S _2640_/B vdd gnd MUX2X1
X_2707_ _2957_/S _2707_/B _2890_/A _2860_/A vdd gnd NAND3X1
X_1871_ _2291_/B vdd _1871_/C _2445_/D vdd gnd OAI21X1
X_1940_ _1940_/A _1940_/B _1940_/C _1999_/C vdd gnd NAND3X1
X_2423_ _2423_/A _2424_/C vdd gnd INVX1
X_2285_ _2293_/A _2294_/A _2294_/B _2286_/A vdd gnd OAI21X1
X_2354_ _2364_/A _2363_/A _2355_/A vdd gnd NOR2X1
X_2070_ _2070_/A _2206_/B _2071_/A _2233_/B _2073_/C vdd gnd OAI22X1
X_2972_ _2984_/A _2972_/B _2972_/C _2973_/B vdd gnd OAI21X1
X_1785_ _2442_/Q _2268_/B vdd gnd INVX1
X_1854_ _1916_/A _1861_/C _1860_/C _1988_/A vdd gnd NAND3X1
X_1923_ _1928_/A _1989_/B _1989_/A _1926_/A vdd gnd AOI21X1
X_2406_ _2406_/A _2412_/C _2412_/A vdd gnd NOR2X1
X_2199_ _2375_/B vdd _2199_/C _2199_/D _2451_/D vdd gnd OAI22X1
X_2268_ _2268_/A _2268_/B _2268_/C _2278_/A vdd gnd OAI21X1
X_2337_ _2350_/A _2349_/A _2338_/A vdd gnd NOR2X1
X_1570_ _1570_/D _3061_/CLK _3020_/A vdd gnd DFFPOSX1
X_2053_ _2061_/A _2062_/C _2117_/B vdd gnd NAND2X1
X_2122_ _2122_/A _2146_/C _2156_/A vdd gnd NAND2X1
X_2955_ _2955_/A _2979_/B _2986_/A _2962_/D vdd gnd AOI21X1
X_1768_ vdd _3089_/Q _1769_/C vdd gnd NAND2X1
X_1837_ _1845_/A _1841_/B vdd gnd INVX1
X_1906_ _1906_/A _1974_/C _1932_/A vdd gnd NAND2X1
X_2886_ _3085_/Q _2889_/A vdd gnd INVX1
X_1699_ _1699_/D _3095_/CLK _1699_/Q vdd gnd DFFPOSX1
X_1622_ _1631_/A _2467_/Q _1663_/B vdd gnd NAND2X1
X_2671_ _2783_/A _2985_/D _2985_/A vdd gnd NOR2X1
X_2740_ _3037_/Q _2740_/B _2742_/D vdd gnd NOR2X1
X_1484_ _1484_/A _1484_/B _1484_/C _3110_/A vdd gnd NAND3X1
X_1553_ _1681_/D _1554_/B vdd gnd INVX1
X_2036_ _2040_/C _2069_/C _2040_/B _2045_/B vdd gnd AOI21X1
X_2105_ _2108_/C _2154_/C _2108_/A _2106_/A vdd gnd AOI21X1
X_3085_ _3085_/D _3101_/CLK _3085_/Q vdd gnd DFFPOSX1
X_2938_ _2986_/A _2938_/B _2938_/C _2938_/D _3089_/D vdd gnd AOI22X1
X_2869_ _3032_/Q _2888_/C _2870_/A vdd gnd NAND2X1
X_2723_ _3049_/Q _2726_/A vdd gnd INVX1
X_1536_ vdd _1536_/B _1552_/B vdd gnd NAND2X1
X_1605_ _1657_/B _1657_/A _2318_/A vdd gnd NAND2X1
X_2585_ _3030_/Q _2665_/A _2593_/C vdd gnd NAND2X1
X_2654_ _2885_/A _2879_/B _2988_/A _2654_/D _2655_/B vdd gnd OAI22X1
X_1467_ _1468_/A _1467_/B _1481_/B _1481_/A _3105_/A vdd gnd AOI22X1
X_2019_ _2025_/A _2204_/A _2125_/A _2030_/B vdd gnd OAI21X1
X_3068_ _3068_/D _3101_/CLK _3068_/Q vdd gnd DFFPOSX1
X_2370_ _2370_/A _2384_/B _2385_/A vdd gnd NOR2X1
X_2706_ _2706_/A _2706_/B _2706_/C _2819_/B vdd gnd NAND3X1
X_1519_ _1519_/A x[6] _1520_/C vdd gnd NAND2X1
X_2499_ _2518_/Q _2499_/B _2499_/Y vdd gnd NOR2X1
X_2568_ _3026_/Q _2571_/A vdd gnd INVX1
X_2637_ _3035_/Q _2646_/B vdd gnd INVX1
X_1870_ vdd _1870_/B _1870_/C _1871_/C vdd gnd NAND3X1
X_2353_ _2353_/A _2450_/Q _2364_/A vdd gnd NOR2X1
X_2422_ _2422_/A _2423_/A _2422_/C _2425_/A vdd gnd NAND3X1
X_2284_ _2284_/A _2284_/B _2286_/B vdd gnd NAND2X1
X_1999_ _1999_/A _2066_/A _1999_/C _2050_/A vdd gnd OAI21X1
X_1922_ _1988_/C _1988_/D _1922_/C _1989_/B vdd gnd NAND3X1
X_2971_ _2984_/A _3052_/Q _2972_/C vdd gnd NAND2X1
X_1784_ _2255_/B vdd _1784_/C _2441_/D vdd gnd OAI21X1
X_1853_ _1931_/C _1853_/B _1853_/C _1861_/C vdd gnd OAI21X1
X_2336_ _2336_/A _2449_/Q _2350_/A vdd gnd NOR2X1
X_2405_ _2405_/A _2454_/Q _2406_/A vdd gnd NOR2X1
X_2198_ _2230_/B _2198_/B vdd _2199_/C vdd gnd OAI21X1
X_2267_ _2311_/B _2267_/B _2267_/C _2456_/D vdd gnd OAI21X1
X_2052_ _2052_/A _2107_/B _2052_/C _2061_/A vdd gnd NAND3X1
X_2121_ _2450_/Q _2352_/B vdd gnd INVX1
X_1905_ _1968_/A _1969_/A _1969_/B _1979_/A vdd gnd NAND3X1
X_2954_ _2960_/A _2954_/B _2954_/C _2955_/A vdd gnd OAI21X1
X_2885_ _2885_/A _2889_/B _2885_/C _2885_/D _3084_/D vdd gnd OAI22X1
X_1698_ _1698_/D _2470_/CLK _1698_/Q vdd gnd DFFPOSX1
X_1767_ _2436_/Q _2080_/A vdd gnd INVX1
X_1836_ _2427_/Q _2437_/Q _1845_/A vdd gnd NAND2X1
X_2319_ _2319_/A _2324_/A _2341_/A vdd gnd OR2X2
X_1552_ _1552_/A _1552_/B rst _1561_/D vdd gnd AOI21X1
X_1621_ _1695_/Q _1630_/B _1663_/A vdd gnd NAND2X1
X_2670_ _2708_/B _2988_/B _2991_/B _2712_/B _2704_/B vdd gnd OAI22X1
X_1483_ _1696_/Q _1483_/B _1483_/C _1484_/C vdd gnd NAND3X1
X_2104_ _2104_/A _2104_/B _2104_/C _2108_/C vdd gnd OAI21X1
X_2035_ _2035_/A _2035_/B _2035_/C _2040_/C vdd gnd OAI21X1
X_3084_ _3084_/D _3101_/CLK _3084_/Q vdd gnd DFFPOSX1
X_2937_ _2985_/A _2937_/B _2937_/C _2985_/D _2938_/C vdd gnd AOI22X1
X_2868_ _3080_/Q _2887_/B _2876_/C _2870_/C vdd gnd NAND3X1
X_1819_ _1834_/C _1822_/C _1820_/C vdd gnd NAND2X1
X_2799_ _3065_/Q _2802_/A vdd gnd INVX1
X_2722_ _2722_/A _2742_/B _2722_/C _2722_/D _3048_/D vdd gnd OAI22X1
X_1535_ _1535_/A _1545_/B vdd gnd INVX1
X_1604_ _1604_/A _2461_/Q _1657_/B vdd gnd NAND2X1
X_2584_ _2706_/C _2665_/A vdd gnd INVX4
X_2653_ _3068_/Q _3100_/Q _2661_/S _2654_/D vdd gnd MUX2X1
X_1466_ _1691_/Q _1466_/B _1467_/B vdd gnd NAND2X1
X_3067_ _3067_/D _3099_/CLK _3067_/Q vdd gnd DFFPOSX1
X_2018_ _2431_/Q _2436_/Q _2125_/A vdd gnd AND2X2
X_2636_ _2665_/A _2636_/B _2636_/C _2636_/D _3034_/D vdd gnd AOI22X1
X_2705_ _3046_/Q _2714_/A vdd gnd INVX1
X_1449_ _1693_/Q _1477_/B _1465_/B _1451_/C vdd gnd OAI21X1
X_1518_ _3016_/A _1520_/B vdd gnd INVX1
X_2498_ _2519_/Q _2499_/B vdd gnd INVX1
X_2567_ _2622_/C _2583_/B _2567_/C _2567_/D _3025_/D vdd gnd OAI22X1
X_2283_ _2294_/A _2293_/A _2284_/A vdd gnd NOR2X1
X_2352_ _2352_/A _2352_/B _2363_/A vdd gnd NOR2X1
X_2421_ _2470_/Q _2426_/A _2426_/C vdd gnd NAND2X1
X_1998_ _2011_/C _2066_/A vdd gnd INVX1
X_2619_ _3049_/Q _3041_/Q _2638_/S _2620_/A vdd gnd MUX2X1
X_1852_ _1908_/A _1931_/C vdd gnd INVX1
X_1921_ _1930_/A _1921_/B _1921_/C _1988_/D vdd gnd NAND3X1
X_2970_ _2970_/A _2970_/B _2982_/S _2973_/C vdd gnd MUX2X1
X_1783_ _2427_/Q _2433_/Q vdd _1784_/C vdd gnd NAND3X1
X_2266_ _2456_/Q _2311_/B _2267_/C vdd gnd NAND2X1
X_2335_ _2335_/A _2335_/B _2349_/A vdd gnd NOR2X1
X_2404_ _2405_/A _2454_/Q _2412_/C vdd gnd AND2X2
X_2197_ _2198_/B _2230_/B _2199_/D vdd gnd AND2X2
X_2120_ _2335_/B vdd _2120_/C _2120_/D _2449_/D vdd gnd OAI22X1
X_2051_ _2051_/A _2051_/B _2051_/C _2052_/C vdd gnd NAND3X1
X_1835_ _1861_/A _1860_/C vdd gnd INVX1
X_1904_ _1907_/A _1907_/B _1908_/A _1969_/B vdd gnd OAI21X1
X_2953_ _2960_/A _3075_/Q _2954_/C vdd gnd NAND2X1
X_2884_ _2888_/A _3016_/A _2888_/C _2885_/D vdd gnd AOI21X1
X_1697_ _1697_/D _2469_/CLK _1697_/Q vdd gnd DFFPOSX1
X_1766_ vdd _2025_/A _1766_/C _2435_/D vdd gnd OAI21X1
X_2249_ _2249_/A _2249_/B _2250_/B vdd gnd NOR2X1
X_2318_ _2318_/A _2447_/Q _2324_/A vdd gnd NOR2X1
X_1482_ _1695_/Q _1482_/B _1482_/C _1484_/A vdd gnd OAI21X1
X_1551_ _2533_/B _1551_/B _1552_/A vdd gnd NAND2X1
X_1620_ _1662_/B _1662_/A _2377_/A vdd gnd NAND2X1
X_2103_ _2110_/C _2110_/A _2110_/B _2154_/C vdd gnd NAND3X1
X_3083_ _3083_/D _3099_/CLK _3083_/Q vdd gnd DFFPOSX1
X_2034_ _2068_/A _2068_/B _2068_/C _2069_/C vdd gnd NAND3X1
X_1818_ _1818_/A _1818_/B _1818_/C _1822_/C vdd gnd NAND3X1
X_2936_ _2948_/A _2936_/B _2936_/C _2937_/B vdd gnd OAI21X1
X_2867_ _3000_/A _2887_/B _2888_/A _2870_/B vdd gnd NAND3X1
X_2798_ _2798_/A _2818_/B _2798_/C _2798_/D _3064_/D vdd gnd OAI22X1
X_1749_ _2430_/Q _2179_/A vdd gnd INVX2
X_2652_ _3084_/Q _2885_/A vdd gnd INVX1
X_2721_ _3000_/A _2741_/B _2742_/B _2722_/C vdd gnd OAI21X1
X_1465_ _1474_/A _1465_/B _1465_/C _1481_/B vdd gnd AOI21X1
X_1534_ _1543_/B _1547_/B _1539_/B vdd gnd NAND2X1
X_1603_ _1689_/Q _1630_/B _1657_/A vdd gnd NAND2X1
X_2583_ _2662_/C _2583_/B _2583_/C _2583_/D _3029_/D vdd gnd OAI22X1
X_2017_ _2430_/Q _2437_/Q _2075_/A vdd gnd NAND2X1
X_3066_ _3066_/D _3098_/CLK _3066_/Q vdd gnd DFFPOSX1
X_2919_ _2919_/A _2979_/B _2986_/A _2926_/D vdd gnd AOI21X1
X_2635_ _2665_/A _2635_/B _2636_/C vdd gnd NOR2X1
X_2704_ _2984_/B _2704_/B _2704_/C _2704_/D _3045_/D vdd gnd OAI22X1
X_1448_ _1448_/A _1448_/B _1465_/B vdd gnd AND2X2
X_1517_ _1517_/A _1517_/B _1517_/C _1568_/D vdd gnd OAI21X1
X_2497_ _2511_/B _2512_/B _2497_/Y vdd gnd NOR2X1
X_2566_ _3004_/A _2582_/B _2583_/B _2567_/D vdd gnd OAI21X1
X_3049_ _3049_/D _3098_/CLK _3049_/Q vdd gnd DFFPOSX1
X_2420_ _2420_/A _2420_/B _2420_/C _2469_/D vdd gnd OAI21X1
X_2282_ _2282_/A _2444_/Q _2294_/A vdd gnd NOR2X1
X_2351_ _2353_/A _2352_/A vdd gnd INVX1
X_1997_ _2429_/Q _2438_/Q _2011_/C vdd gnd AND2X2
X_2549_ _2707_/B _2890_/A _2550_/B vdd gnd NAND2X1
X_2618_ _3073_/Q _3057_/Q _2638_/S _2620_/B vdd gnd MUX2X1
X_1851_ _1851_/A _2028_/A _1908_/A vdd gnd NAND2X1
X_1920_ _1980_/A _1980_/C _1930_/B _1988_/C vdd gnd NAND3X1
X_1782_ _2441_/Q _2255_/B vdd gnd INVX1
X_2403_ _2403_/A _2415_/B _2403_/C _2409_/A vdd gnd OAI21X1
X_2196_ _2196_/A _2229_/A _2230_/B vdd gnd NAND2X1
X_2265_ _2265_/A _2268_/C _2267_/B vdd gnd NAND2X1
X_2334_ _2336_/A _2335_/A vdd gnd INVX1
X_2050_ _2050_/A _2107_/A _2050_/C _2107_/B vdd gnd NAND3X1
XCLKBUF1_insert10 clk _3097_/CLK vdd gnd CLKBUF1
X_2952_ _3059_/Q _2954_/B vdd gnd INVX1
X_1765_ vdd _3088_/Q _1766_/C vdd gnd NAND2X1
X_1834_ _1834_/A _1876_/A _1834_/C _1859_/A vdd gnd OAI21X1
X_1903_ _2435_/Q _2430_/Q _1946_/C _1958_/C _1907_/B vdd gnd AOI22X1
X_2883_ _3036_/Q _2887_/B _2885_/C vdd gnd NOR2X1
X_1696_ _1696_/D _2470_/CLK _1696_/Q vdd gnd DFFPOSX1
X_2179_ _2179_/A _2206_/B _2203_/A vdd gnd NOR2X1
X_2248_ _2248_/A _2248_/B vdd _2249_/A vdd gnd OAI21X1
X_2317_ _2339_/A _2319_/A vdd gnd INVX1
X_1481_ _1481_/A _1481_/B _1481_/C _1481_/D _3109_/A vdd gnd AOI22X1
X_1550_ _2481_/Y _1551_/B vdd gnd INVX1
X_2033_ _2033_/A _2066_/C _2040_/B vdd gnd AND2X2
X_2102_ _2102_/A _2102_/B _2154_/A _2106_/B vdd gnd AOI21X1
X_3082_ _3082_/D _3097_/CLK _3082_/Q vdd gnd DFFPOSX1
X_2935_ _2948_/A _3049_/Q _2936_/C vdd gnd NAND2X1
X_1748_ vdd _2071_/A _1748_/C _2429_/D vdd gnd OAI21X1
X_1817_ _2070_/A _2025_/A _1817_/C _1818_/C vdd gnd OAI21X1
X_2866_ _2866_/A _2866_/B _2866_/C _3079_/D vdd gnd NAND3X1
X_2797_ _3000_/A _2817_/B _2818_/B _2798_/C vdd gnd OAI21X1
X_1679_ _1679_/D _3075_/CLK _1679_/Q vdd gnd DFFPOSX1
X_1602_ _1656_/B _1656_/A _2305_/A vdd gnd NAND2X1
X_2582_ _3020_/A _2582_/B _2583_/B _2583_/D vdd gnd OAI21X1
X_2651_ _3028_/Q _2651_/B _2651_/C _2743_/A _2656_/D vdd gnd AOI22X1
X_2720_ _3032_/Q _2740_/B _2722_/D vdd gnd NOR2X1
X_1464_ _1464_/A _1465_/C vdd gnd INVX1
X_1533_ _1537_/C _1535_/A _1533_/C _1547_/B vdd gnd NAND3X1
X_2016_ _2016_/A _2016_/B _2016_/C _2068_/C vdd gnd OAI21X1
X_3065_ _3065_/D _3097_/CLK _3065_/Q vdd gnd DFFPOSX1
X_2918_ _2945_/S _2918_/B _2918_/C _2919_/A vdd gnd OAI21X1
X_2849_ _3016_/A _2853_/B _2853_/C _2850_/A vdd gnd OAI21X1
X_1516_ _1517_/A x[5] _1517_/C vdd gnd NAND2X1
X_2565_ _3033_/Q _2581_/B _2567_/C vdd gnd NOR2X1
X_2634_ _2634_/A _2879_/B _2988_/A _2634_/D _2635_/B vdd gnd OAI22X1
X_2703_ _3020_/A _2703_/B _2704_/B _2704_/D vdd gnd OAI21X1
X_1447_ _1697_/Q _1482_/C _1448_/B vdd gnd NOR2X1
X_2496_ _2507_/B _2512_/B vdd gnd INVX1
X_3048_ _3048_/D _3075_/CLK _3048_/Q vdd gnd DFFPOSX1
X_2281_ _2281_/A _2281_/B _2293_/A vdd gnd NOR2X1
X_2350_ _2350_/A _2389_/B _2364_/B _2357_/A vdd gnd OAI21X1
X_1996_ _1996_/A _1996_/B _1996_/C _2047_/C vdd gnd AOI21X1
X_2548_ _2785_/A _2783_/A _2856_/A vdd gnd NOR2X1
X_2617_ _3033_/Q _2626_/B vdd gnd INVX1
X_2479_ _2511_/C _2509_/B vdd gnd INVX1
X_1781_ vdd _2206_/B _1781_/C _2440_/D vdd gnd OAI21X1
X_1850_ _1856_/B _1876_/C _1853_/C vdd gnd NAND2X1
X_2333_ _2463_/Q _2382_/A _2347_/C vdd gnd NAND2X1
X_2402_ _2412_/B _2403_/C vdd gnd INVX1
X_2195_ _2195_/A _2214_/A _2195_/C _2229_/A vdd gnd NAND3X1
X_2264_ _2264_/A _2264_/B _2264_/C _2265_/A vdd gnd OAI21X1
X_1979_ _1979_/A _1979_/B _1979_/C _1980_/B vdd gnd AOI21X1
X_1902_ _1902_/A _1902_/B _1946_/A _1907_/A vdd gnd AOI21X1
XCLKBUF1_insert11 clk _3087_/CLK vdd gnd CLKBUF1
X_2951_ _3091_/Q _2962_/B vdd gnd INVX1
X_1764_ _2435_/Q _2025_/A vdd gnd INVX2
X_1833_ _2429_/Q _2435_/Q _1876_/A vdd gnd NAND2X1
X_2882_ _2882_/A _2889_/B _2882_/C _2882_/D _3083_/D vdd gnd OAI22X1
X_1695_ _1695_/D _2470_/CLK _1695_/Q vdd gnd DFFPOSX1
X_2316_ _2318_/A _2447_/Q _2339_/A vdd gnd NAND2X1
X_2178_ _2179_/A _2206_/B _2178_/C _2186_/A vdd gnd OAI21X1
X_2247_ _2247_/A _2249_/B vdd gnd INVX1
X_1480_ _1695_/Q _1482_/B _1481_/D vdd gnd NAND2X1
X_2032_ _2041_/C _2041_/B _2069_/A _2045_/A vdd gnd AOI21X1
X_2101_ _2110_/A _2110_/B _2104_/C _2102_/B vdd gnd NAND3X1
X_3081_ _3081_/D _3097_/CLK _3081_/Q vdd gnd DFFPOSX1
X_2934_ _2934_/A _2934_/B _2982_/S _2937_/C vdd gnd MUX2X1
X_2865_ _3031_/Q _2888_/C _2866_/A vdd gnd NAND2X1
X_1678_ _1678_/D _3075_/CLK _1678_/Q vdd gnd DFFPOSX1
X_1747_ vdd _1747_/B _1748_/C vdd gnd NAND2X1
X_1816_ _1816_/A _2071_/A _1839_/A _1818_/B vdd gnd OAI21X1
X_2796_ _3032_/Q _2816_/B _2798_/D vdd gnd NOR2X1
X_1532_ _1559_/Q _1555_/B _1533_/C vdd gnd NOR2X1
X_1601_ _1607_/A _2460_/Q _1656_/B vdd gnd NAND2X1
X_2581_ _3037_/Q _2581_/B _2583_/C vdd gnd NOR2X1
X_2650_ _2650_/A _2650_/B _2667_/B _2651_/C vdd gnd MUX2X1
X_1463_ _1479_/B _1479_/A _1474_/A vdd gnd NAND2X1
X_2015_ _2015_/A _2015_/B _2016_/B vdd gnd AND2X2
X_3064_ _3064_/D _3099_/CLK _3064_/Q vdd gnd DFFPOSX1
X_2917_ _2945_/S _3072_/Q _2918_/C vdd gnd NAND2X1
X_2848_ _3036_/Q _2852_/B _2850_/B vdd gnd NOR2X1
X_2779_ _3037_/Q _2779_/B _2781_/A vdd gnd NOR2X1
X_2702_ _3037_/Q _2702_/B _2704_/C vdd gnd NOR2X1
X_1515_ _3012_/A _1517_/B vdd gnd INVX1
X_2495_ _2495_/A _2511_/C _2511_/B _2743_/A vdd gnd MUX2X1
X_2564_ _3025_/Q _2622_/C vdd gnd INVX1
X_2633_ _3066_/Q _3098_/Q _2633_/S _2634_/D vdd gnd MUX2X1
X_1446_ _1696_/Q _1482_/C vdd gnd INVX1
X_3047_ _3047_/D _3095_/CLK _3047_/Q vdd gnd DFFPOSX1
X_2280_ _2282_/A _2281_/A vdd gnd INVX1
X_1995_ _2049_/C _1996_/C vdd gnd INVX1
X_2616_ _2665_/A _2616_/B _2616_/C _2616_/D _3032_/D vdd gnd AOI22X1
X_2478_ _2524_/Q _2493_/A _2511_/C vdd gnd NAND2X1
X_2547_ _2860_/B _2991_/B _2879_/A _2662_/D _2583_/B vdd gnd OAI22X1
X_1780_ vdd _3093_/Q _1781_/C vdd gnd NAND2X1
X_2332_ _2332_/A _2332_/B _2332_/C _2332_/D _2462_/D vdd gnd AOI22X1
X_2401_ _2468_/Q _2410_/B vdd gnd INVX1
X_2194_ _2194_/A _2194_/B _2195_/C vdd gnd NAND2X1
X_2263_ _2263_/A _2263_/B _2268_/C vdd gnd NAND2X1
X_1978_ _1978_/A _1978_/B _1978_/C _1985_/B vdd gnd OAI21X1
X_1832_ _1832_/A _1864_/A vdd gnd INVX1
X_1901_ _1931_/C _1931_/B _1931_/A _1968_/A vdd gnd NAND3X1
XCLKBUF1_insert12 clk _3101_/CLK vdd gnd CLKBUF1
X_2950_ _2986_/A _2950_/B _2950_/C _2950_/D _3090_/D vdd gnd AOI22X1
X_2881_ _2888_/A _3012_/A _2888_/C _2882_/D vdd gnd AOI21X1
X_1694_ _1694_/D _2470_/CLK _1694_/Q vdd gnd DFFPOSX1
X_1763_ vdd _1816_/A _1763_/C _2434_/D vdd gnd OAI21X1
X_2246_ _2454_/Q _2251_/A vdd gnd INVX1
X_2315_ _2343_/C _2343_/A _2342_/B _2324_/B vdd gnd AOI21X1
X_2177_ _2180_/A _2206_/C _2203_/B _2178_/C vdd gnd OAI21X1
X_2100_ _2124_/A _2100_/B _2100_/C _2110_/B vdd gnd NAND3X1
X_3080_ _3080_/D _3097_/CLK _3080_/Q vdd gnd DFFPOSX1
X_2031_ _2068_/A _2035_/C _2068_/B _2041_/B vdd gnd NAND3X1
X_1815_ _1815_/A _1815_/B _1815_/C _1834_/C vdd gnd NAND3X1
X_2933_ _3081_/Q _3025_/Q _2945_/S _2934_/A vdd gnd MUX2X1
X_2864_ _3079_/Q _2887_/B _2876_/C _2866_/C vdd gnd NAND3X1
X_2795_ _3064_/Q _2798_/A vdd gnd INVX1
X_1677_ _1677_/D _3075_/CLK _1677_/Q vdd gnd DFFPOSX1
X_1746_ _2429_/Q _2071_/A vdd gnd INVX2
X_2229_ _2229_/A _2230_/A _2229_/C _2231_/C vdd gnd OAI21X1
X_1462_ _1691_/Q _1692_/Q _1693_/Q _1479_/B vdd gnd AOI21X1
X_1531_ _1558_/Q _1555_/B vdd gnd INVX1
X_1600_ _1688_/Q _1630_/B _1656_/A vdd gnd NAND2X1
X_2580_ _3029_/Q _2662_/C vdd gnd INVX1
X_3063_ _3063_/D _3095_/CLK _3063_/Q vdd gnd DFFPOSX1
X_2014_ _2435_/Q _2431_/Q _2015_/B vdd gnd NAND2X1
X_2916_ _3056_/Q _2918_/B vdd gnd INVX1
X_2847_ _3076_/Q _2851_/B _2850_/C vdd gnd NAND2X1
X_2778_ _3061_/Q _2779_/B _2778_/C _2781_/C vdd gnd NAND3X1
X_1729_ _1736_/A _1735_/B vdd gnd INVX1
X_2632_ _3082_/Q _2634_/A vdd gnd INVX1
X_2701_ _3045_/Q _2984_/B vdd gnd INVX1
X_1445_ _1695_/Q _1479_/C _1448_/A vdd gnd NOR2X1
X_1514_ _1522_/A _1514_/B _1514_/C _1567_/D vdd gnd OAI21X1
X_2494_ _2508_/C _2495_/A vdd gnd INVX1
X_2563_ _2563_/A _2583_/B _2563_/C _2563_/D _3024_/D vdd gnd OAI22X1
X_3046_ _3046_/D _3075_/CLK _3046_/Q vdd gnd DFFPOSX1
X_1994_ _2062_/A _2056_/B _2054_/B vdd gnd NOR2X1
X_2615_ _2665_/A _2615_/B _2616_/C vdd gnd NOR2X1
X_2477_ _2493_/A _2524_/Q _2511_/A _2507_/B vdd gnd AOI21X1
X_2546_ _2707_/B _2890_/A _2546_/C _2991_/B vdd gnd NAND3X1
X_3029_ _3029_/D _3101_/CLK _3029_/Q vdd gnd DFFPOSX1
X_2400_ _2400_/A _2400_/B _2400_/C _2467_/D vdd gnd OAI21X1
X_2262_ _2264_/B _2264_/A _2263_/B vdd gnd NOR2X1
X_2331_ _2331_/A _2340_/A _2332_/A _2332_/C vdd gnd AOI21X1
X_2193_ _2194_/A _2194_/B _2193_/C _2196_/A vdd gnd NAND3X1
X_1977_ _1996_/B _2049_/C _1996_/A _1978_/B vdd gnd AOI21X1
X_2529_ _2535_/Q _2533_/A vdd gnd INVX1
X_1831_ _2445_/Q _2291_/B vdd gnd INVX1
X_1900_ _1946_/A _1902_/A _1902_/B _1931_/B vdd gnd NAND3X1
X_2880_ _3035_/Q _2887_/B _2882_/C vdd gnd NOR2X1
X_1693_ _1693_/D _2470_/CLK _1693_/Q vdd gnd DFFPOSX1
X_1762_ vdd _3087_/Q _1763_/C vdd gnd NAND2X1
X_2176_ _2204_/A _2176_/B _2248_/A _2203_/B vdd gnd OAI21X1
X_2245_ _2245_/A _2245_/B _2453_/D vdd gnd NAND2X1
X_2314_ _2314_/A _2314_/B _2343_/A vdd gnd AND2X2
X_2030_ _2075_/A _2030_/B _2030_/C _2068_/B vdd gnd NAND3X1
X_2932_ _3065_/Q _3097_/Q _2945_/S _2934_/B vdd gnd MUX2X1
X_1745_ vdd _2070_/A _1745_/C _2428_/D vdd gnd OAI21X1
X_1814_ _2070_/A _2025_/A _1814_/C _1815_/A vdd gnd OAI21X1
X_2863_ _2996_/A _2887_/B _2888_/A _2866_/B vdd gnd NAND3X1
X_2794_ _2794_/A _2818_/B _2794_/C _2794_/D _3063_/D vdd gnd OAI22X1
X_1676_ _1676_/D _3075_/CLK _1676_/Q vdd gnd DFFPOSX1
X_2159_ _2160_/B _2171_/A _2169_/C _2166_/A vdd gnd AOI21X1
X_2228_ _2453_/Q _2382_/A _2245_/A vdd gnd NAND2X1
X_1461_ _1461_/A _1461_/B _1461_/C _1479_/A vdd gnd NAND3X1
X_1530_ _1536_/B _1557_/Q _1535_/A vdd gnd NOR2X1
X_2013_ _2066_/C _2033_/A _2069_/A vdd gnd NAND2X1
X_3062_ _3062_/D _3099_/CLK _3062_/Q vdd gnd DFFPOSX1
X_2915_ _3088_/Q _2926_/B vdd gnd INVX1
X_1728_ _1728_/D _2535_/CLK _1750_/B vdd gnd DFFPOSX1
X_2846_ _2846_/A _2846_/B _2846_/C _3075_/D vdd gnd OAI21X1
X_2777_ _2777_/A _2777_/B _2777_/C _3060_/D vdd gnd OAI21X1
X_1659_ _1659_/A _1659_/B _1665_/C _1691_/D vdd gnd AOI21X1
X_2562_ _3000_/A _2582_/B _2583_/B _2563_/D vdd gnd OAI21X1
X_2631_ _3026_/Q _2651_/B _2631_/C _2743_/A _2636_/D vdd gnd AOI22X1