* NGSPICE file created from ALU_wrapper_Core.ext - technology: scmos

.subckt AND2X2 A B Y vdd gnd
M1000 vdd B a_90_210# vdd pfet w=6u l=0.6u
+  ad=11.7p pd=14.4u as=7.2p ps=8.4u
M1001 a_360_210# A a_90_210# gnd nfet w=6u l=0.6u
+  ad=2.7p pd=6.9u as=12.599999p ps=16.199999u
M1002 Y a_90_210# vdd vdd pfet w=11.999999u l=0.6u
+  ad=25.199999p pd=28.2u as=11.7p ps=14.4u
M1003 gnd B a_360_210# gnd nfet w=6u l=0.6u
+  ad=7.2p pd=8.4u as=2.7p ps=6.9u
M1004 Y a_90_210# gnd gnd nfet w=6u l=0.6u
+  ad=12.599999p pd=16.199999u as=7.2p ps=8.4u
M1005 a_90_210# A vdd vdd pfet w=6u l=0.6u
+  ad=7.2p pd=8.4u as=12.599999p ps=16.199999u
.ends

.subckt OAI21X1 A B C Y vdd gnd
M1000 gnd A a_90_210# gnd nfet w=6u l=0.6u
+  ad=7.2p pd=8.4u as=12.599999p ps=16.199999u
M1001 a_90_210# B gnd gnd nfet w=6u l=0.6u
+  ad=7.2p pd=8.4u as=7.2p ps=8.4u
M1002 Y C a_90_210# gnd nfet w=6u l=0.6u
+  ad=12.599999p pd=16.199999u as=7.2p ps=8.4u
M1003 vdd C Y vdd pfet w=6u l=0.6u
+  ad=12.599999p pd=16.199999u as=12.15p ps=14.4u
M1004 a_390_2490# A vdd vdd pfet w=11.999999u l=0.6u
+  ad=9p pd=13.5u as=25.199999p ps=28.2u
M1005 Y B a_390_2490# vdd pfet w=11.999999u l=0.6u
+  ad=12.15p pd=14.4u as=9p ps=13.5u
.ends

.subckt NAND3X1 A B C Y vdd gnd
M1000 vdd B Y vdd pfet w=6u l=0.6u
+  ad=7.2p pd=8.4u as=7.2p ps=8.4u
M1001 a_360_210# A gnd gnd nfet w=8.999999u l=0.6u
+  ad=4.05p pd=9.9u as=18.9p ps=22.2u
M1002 Y C vdd vdd pfet w=6u l=0.6u
+  ad=12.599999p pd=16.199999u as=7.2p ps=8.4u
M1003 a_510_210# B a_360_210# gnd nfet w=8.999999u l=0.6u
+  ad=6.75p pd=10.5u as=4.05p ps=9.9u
M1004 Y C a_510_210# gnd nfet w=8.999999u l=0.6u
+  ad=18.9p pd=22.2u as=6.75p ps=10.5u
M1005 Y A vdd vdd pfet w=6u l=0.6u
+  ad=7.2p pd=8.4u as=12.599999p ps=16.199999u
.ends

.subckt INVX1 A Y vdd gnd
M1000 Y A gnd gnd nfet w=3u l=0.6u
+  ad=6.3p pd=10.2u as=6.3p ps=10.2u
M1001 Y A vdd vdd pfet w=6u l=0.6u
+  ad=12.599999p pd=16.199999u as=12.599999p ps=16.199999u
.ends

.subckt AOI21X1 A B C Y vdd gnd
M1000 Y C a_90_2490# vdd pfet w=11.999999u l=0.6u
+  ad=25.199999p pd=28.2u as=14.4p ps=14.4u
M1001 Y B a_420_210# gnd nfet w=6u l=0.6u
+  ad=6.075p pd=8.4u as=2.7p ps=6.9u
M1002 gnd C Y gnd nfet w=3u l=0.6u
+  ad=6.3p pd=10.2u as=6.075p ps=8.4u
M1003 a_420_210# A gnd gnd nfet w=6u l=0.6u
+  ad=2.7p pd=6.9u as=12.599999p ps=16.199999u
M1004 vdd A a_90_2490# vdd pfet w=11.999999u l=0.6u
+  ad=14.4p pd=14.4u as=25.199999p ps=28.2u
M1005 a_90_2490# B vdd vdd pfet w=11.999999u l=0.6u
+  ad=14.4p pd=14.4u as=14.4p ps=14.4u
.ends

.subckt OAI22X1 A B C D Y vdd gnd
M1000 gnd A a_90_210# gnd nfet w=6u l=0.6u
+  ad=7.2p pd=8.4u as=12.599999p ps=16.199999u
M1001 a_960_2490# D Y vdd pfet w=11.999999u l=0.6u
+  ad=5.4p pd=12.9u as=23.4p ps=15.9u
M1002 a_90_210# B gnd gnd nfet w=6u l=0.6u
+  ad=7.2p pd=8.4u as=7.2p ps=8.4u
M1003 Y D a_90_210# gnd nfet w=6u l=0.6u
+  ad=7.2p pd=8.4u as=7.2p ps=8.4u
M1004 vdd C a_960_2490# vdd pfet w=11.999999u l=0.6u
+  ad=25.199999p pd=28.2u as=5.4p ps=12.9u
M1005 a_90_210# C Y gnd nfet w=6u l=0.6u
+  ad=12.599999p pd=16.199999u as=7.2p ps=8.4u
M1006 a_360_2490# A vdd vdd pfet w=11.999999u l=0.6u
+  ad=5.4p pd=12.9u as=25.199999p ps=28.2u
M1007 Y B a_360_2490# vdd pfet w=11.999999u l=0.6u
+  ad=23.4p pd=15.9u as=5.4p ps=12.9u
.ends

.subckt NOR2X1 A B Y vdd gnd
M1000 Y A gnd gnd nfet w=3u l=0.6u
+  ad=3.6p pd=5.4u as=6.3p ps=10.2u
M1001 gnd B Y gnd nfet w=3u l=0.6u
+  ad=6.3p pd=10.2u as=3.6p ps=5.4u
M1002 a_360_2490# A vdd vdd pfet w=11.999999u l=0.6u
+  ad=9p pd=13.5u as=25.199999p ps=28.2u
M1003 Y B a_360_2490# vdd pfet w=11.999999u l=0.6u
+  ad=25.199999p pd=28.2u as=9p ps=13.5u
.ends

.subckt NAND2X1 A B Y vdd gnd
M1000 vdd B Y vdd pfet w=6u l=0.6u
+  ad=12.599999p pd=16.199999u as=7.2p ps=8.4u
M1001 a_390_210# A gnd gnd nfet w=6u l=0.6u
+  ad=2.7p pd=6.9u as=12.599999p ps=16.199999u
M1002 Y B a_390_210# gnd nfet w=6u l=0.6u
+  ad=16.199999p pd=17.4u as=2.7p ps=6.9u
M1003 Y A vdd vdd pfet w=6u l=0.6u
+  ad=7.2p pd=8.4u as=12.599999p ps=16.199999u
.ends

.subckt XNOR2X1 A B Y vdd gnd
M1000 gnd B a_1080_210# gnd nfet w=6u l=0.6u
+  ad=8.099999p pd=8.7u as=2.7p ps=6.9u
M1001 gnd A a_90_210# gnd nfet w=6u l=0.6u
+  ad=7.2p pd=8.4u as=12.599999p ps=16.199999u
M1002 Y a_90_210# a_660_2490# vdd pfet w=11.999999u l=0.6u
+  ad=14.4p pd=14.4u as=5.4p ps=12.9u
M1003 a_660_210# a_435_870# gnd gnd nfet w=6u l=0.6u
+  ad=1.8p pd=6.6u as=7.2p ps=8.4u
M1004 a_1110_2490# A Y vdd pfet w=11.999999u l=0.6u
+  ad=3.6p pd=12.599999u as=14.4p ps=14.4u
M1005 Y A a_660_210# gnd nfet w=6u l=0.6u
+  ad=7.2p pd=8.4u as=1.8p ps=6.6u
M1006 vdd B a_1110_2490# vdd pfet w=11.999999u l=0.6u
+  ad=16.199999p pd=14.7u as=3.6p ps=12.599999u
M1007 a_1080_210# a_90_210# Y gnd nfet w=6u l=0.6u
+  ad=2.7p pd=6.9u as=7.2p ps=8.4u
M1008 vdd A a_90_210# vdd pfet w=11.999999u l=0.6u
+  ad=14.4p pd=14.4u as=25.199999p ps=28.2u
M1009 a_435_870# B gnd gnd nfet w=6u l=0.6u
+  ad=12.599999p pd=16.199999u as=8.099999p ps=8.7u
M1010 a_435_870# B vdd vdd pfet w=11.999999u l=0.6u
+  ad=25.199999p pd=28.2u as=16.199999p ps=14.7u
M1011 a_660_2490# a_435_870# vdd vdd pfet w=11.999999u l=0.6u
+  ad=5.4p pd=12.9u as=14.4p ps=14.4u
.ends

.subckt BUFX2 A Y vdd gnd
M1000 gnd A a_90_210# gnd nfet w=3u l=0.6u
+  ad=6.075p pd=8.4u as=6.3p ps=10.2u
M1001 Y a_90_210# gnd gnd nfet w=6u l=0.6u
+  ad=12.599999p pd=16.199999u as=6.075p ps=8.4u
M1002 vdd A a_90_210# vdd pfet w=6u l=0.6u
+  ad=12.15p pd=14.4u as=12.599999p ps=16.199999u
M1003 Y a_90_210# vdd vdd pfet w=11.999999u l=0.6u
+  ad=25.199999p pd=28.2u as=12.15p ps=14.4u
.ends

.subckt INVX4 A Y vdd gnd
M1000 Y A gnd gnd nfet w=6u l=0.6u
+  ad=7.2p pd=8.4u as=12.599999p ps=16.199999u
M1001 gnd A Y gnd nfet w=6u l=0.6u
+  ad=12.599999p pd=16.199999u as=7.2p ps=8.4u
M1002 Y A vdd vdd pfet w=11.999999u l=0.6u
+  ad=14.4p pd=14.4u as=25.199999p ps=28.2u
M1003 vdd A Y vdd pfet w=11.999999u l=0.6u
+  ad=25.199999p pd=28.2u as=14.4p ps=14.4u
.ends

.subckt DFFPOSX1 D CLK Q vdd gnd
M1000 a_1275_3090# a_165_210# a_885_210# vdd pfet w=6u l=0.6u
+  ad=3.6p pd=7.2u as=7.2p ps=8.4u
M1001 gnd Q a_2805_210# gnd nfet w=3u l=0.6u
+  ad=6.974999p pd=8.7u as=1.35p ps=3.9u
M1002 gnd a_1305_150# a_1215_210# gnd nfet w=3u l=0.6u
+  ad=4.05p pd=5.7u as=1.35p ps=3.9u
M1003 vdd Q a_2835_3390# vdd pfet w=3u l=0.6u
+  ad=10.125p pd=14.7u as=0.9p ps=3.6u
M1004 gnd CLK a_165_210# gnd nfet w=6u l=0.6u
+  ad=5.85p pd=8.4u as=12.599999p ps=16.199999u
M1005 vdd CLK a_165_210# vdd pfet w=11.999999u l=0.6u
+  ad=11.249999p pd=14.4u as=25.199999p ps=28.2u
M1006 a_2475_210# CLK a_2355_210# gnd nfet w=3u l=0.6u
+  ad=4.05p pd=5.7u as=0.9p ps=3.6u
M1007 Q a_2475_210# vdd vdd pfet w=11.999999u l=0.6u
+  ad=25.199999p pd=28.2u as=10.125p ps=14.7u
M1008 a_735_210# D gnd gnd nfet w=3u l=0.6u
+  ad=1.35p pd=3.9u as=5.85p ps=8.4u
M1009 vdd a_1305_150# a_1275_3090# vdd pfet w=6u l=0.6u
+  ad=7.2p pd=8.4u as=3.6p ps=7.2u
M1010 Q a_2475_210# gnd gnd nfet w=6u l=0.6u
+  ad=12.599999p pd=16.199999u as=6.974999p ps=8.7u
M1011 a_1215_210# CLK a_885_210# gnd nfet w=3u l=0.6u
+  ad=1.35p pd=3.9u as=4.05p ps=5.7u
M1012 a_1305_150# a_885_210# gnd gnd nfet w=3u l=0.6u
+  ad=6.3p pd=10.2u as=4.05p ps=5.7u
M1013 a_2415_3090# a_1305_150# vdd vdd pfet w=6u l=0.6u
+  ad=1.8p pd=6.6u as=12.599999p ps=16.199999u
M1014 a_1305_150# a_885_210# vdd vdd pfet w=6u l=0.6u
+  ad=12.599999p pd=16.199999u as=7.2p ps=8.4u
M1015 a_2475_210# a_165_210# a_2415_3090# vdd pfet w=6u l=0.6u
+  ad=6.075p pd=8.4u as=1.8p ps=6.6u
M1016 a_2805_210# a_165_210# a_2475_210# gnd nfet w=3u l=0.6u
+  ad=1.35p pd=3.9u as=4.05p ps=5.7u
M1017 a_735_3090# D vdd vdd pfet w=6u l=0.6u
+  ad=5.4p pd=7.8u as=11.249999p ps=14.4u
M1018 a_885_210# CLK a_735_3090# vdd pfet w=6u l=0.6u
+  ad=7.2p pd=8.4u as=5.4p ps=7.8u
M1019 a_2355_210# a_1305_150# gnd gnd nfet w=3u l=0.6u
+  ad=0.9p pd=3.6u as=6.3p ps=10.2u
M1020 a_2835_3390# CLK a_2475_210# vdd pfet w=3u l=0.6u
+  ad=0.9p pd=3.6u as=6.075p ps=8.4u
M1021 a_885_210# a_165_210# a_735_210# gnd nfet w=3u l=0.6u
+  ad=4.05p pd=5.7u as=1.35p ps=3.9u
.ends

.subckt INVX2 A Y vdd gnd
M1000 Y A gnd gnd nfet w=6u l=0.6u
+  ad=12.599999p pd=16.199999u as=12.599999p ps=16.199999u
M1001 Y A vdd vdd pfet w=11.999999u l=0.6u
+  ad=25.199999p pd=28.2u as=25.199999p ps=28.2u
.ends

.subckt OR2X2 A B Y vdd gnd
M1000 a_90_2490# A gnd gnd nfet w=3u l=0.6u
+  ad=3.6p pd=5.4u as=6.3p ps=10.2u
M1001 Y a_90_2490# vdd vdd pfet w=11.999999u l=0.6u
+  ad=25.199999p pd=28.2u as=14.4p ps=14.4u
M1002 gnd B a_90_2490# gnd nfet w=3u l=0.6u
+  ad=6.3p pd=8.4u as=3.6p ps=5.4u
M1003 Y a_90_2490# gnd gnd nfet w=6u l=0.6u
+  ad=12.599999p pd=16.199999u as=6.3p ps=8.4u
M1004 a_360_2490# A a_90_2490# vdd pfet w=11.999999u l=0.6u
+  ad=5.4p pd=12.9u as=25.199999p ps=28.2u
M1005 vdd B a_360_2490# vdd pfet w=11.999999u l=0.6u
+  ad=14.4p pd=14.4u as=5.4p ps=12.9u
.ends

.subckt XOR2X1 A B Y vdd gnd
M1000 gnd A a_90_210# gnd nfet w=6u l=0.6u
+  ad=7.2p pd=8.4u as=12.599999p ps=16.199999u
M1001 Y A a_660_2490# vdd pfet w=11.999999u l=0.6u
+  ad=14.4p pd=14.4u as=5.4p ps=12.9u
M1002 a_660_210# a_420_870# gnd gnd nfet w=6u l=0.6u
+  ad=2.7p pd=6.9u as=7.2p ps=8.4u
M1003 a_1110_2490# a_90_210# Y vdd pfet w=11.999999u l=0.6u
+  ad=5.4p pd=12.9u as=14.4p ps=14.4u
M1004 vdd B a_1110_2490# vdd pfet w=11.999999u l=0.6u
+  ad=14.4p pd=14.4u as=5.4p ps=12.9u
M1005 gnd B a_1110_210# gnd nfet w=6u l=0.6u
+  ad=7.2p pd=8.4u as=2.7p ps=6.9u
M1006 vdd A a_90_210# vdd pfet w=11.999999u l=0.6u
+  ad=14.4p pd=14.4u as=25.199999p ps=28.2u
M1007 a_420_870# B gnd gnd nfet w=6u l=0.6u
+  ad=12.599999p pd=16.199999u as=7.2p ps=8.4u
M1008 Y a_90_210# a_660_210# gnd nfet w=6u l=0.6u
+  ad=7.2p pd=8.4u as=2.7p ps=6.9u
M1009 a_420_870# B vdd vdd pfet w=11.999999u l=0.6u
+  ad=25.199999p pd=28.2u as=14.4p ps=14.4u
M1010 a_1110_210# A Y gnd nfet w=6u l=0.6u
+  ad=2.7p pd=6.9u as=7.2p ps=8.4u
M1011 a_660_2490# a_420_870# vdd vdd pfet w=11.999999u l=0.6u
+  ad=5.4p pd=12.9u as=14.4p ps=14.4u
.ends

.subckt NOR3X1 A B C Y vdd gnd
M1000 Y C a_960_2790# vdd pfet w=8.999999u l=0.6u
+  ad=10.8p pd=11.4u as=18.9p ps=22.2u
M1001 Y A gnd gnd nfet w=3u l=0.6u
+  ad=3.6p pd=5.4u as=7.2p ps=10.799999u
M1002 a_960_2790# B a_90_2790# vdd pfet w=8.999999u l=0.6u
+  ad=10.8p pd=11.4u as=10.8p ps=11.4u
M1003 gnd B Y gnd nfet w=3u l=0.6u
+  ad=3.6p pd=5.4u as=3.6p ps=5.4u
M1004 a_90_2790# B a_960_2790# vdd pfet w=8.999999u l=0.6u
+  ad=18.9p pd=22.2u as=10.8p ps=11.4u
M1005 Y C gnd gnd nfet w=3u l=0.6u
+  ad=6.3p pd=10.2u as=3.6p ps=5.4u
M1006 vdd A a_90_2790# vdd pfet w=8.999999u l=0.6u
+  ad=10.8p pd=11.4u as=18.9p ps=22.2u
M1007 a_960_2790# C Y vdd pfet w=8.999999u l=0.6u
+  ad=18.9p pd=22.2u as=10.8p ps=11.4u
M1008 a_90_2790# A vdd vdd pfet w=8.999999u l=0.6u
+  ad=10.8p pd=11.4u as=10.8p ps=11.4u
.ends

.subckt AOI22X1 A B C D Y vdd gnd
M1000 Y D a_90_2490# vdd pfet w=11.999999u l=0.6u
+  ad=14.4p pd=14.4u as=14.4p ps=14.4u
M1001 a_390_210# A gnd gnd nfet w=6u l=0.6u
+  ad=2.7p pd=6.9u as=12.599999p ps=16.199999u
M1002 a_90_2490# C Y vdd pfet w=11.999999u l=0.6u
+  ad=25.199999p pd=28.2u as=14.4p ps=14.4u
M1003 gnd C a_840_210# gnd nfet w=6u l=0.6u
+  ad=12.599999p pd=16.199999u as=2.7p ps=6.9u
M1004 vdd A a_90_2490# vdd pfet w=11.999999u l=0.6u
+  ad=14.4p pd=14.4u as=25.199999p ps=28.2u
M1005 Y B a_390_210# gnd nfet w=6u l=0.6u
+  ad=7.2p pd=8.4u as=2.7p ps=6.9u
M1006 a_840_210# D Y gnd nfet w=6u l=0.6u
+  ad=2.7p pd=6.9u as=7.2p ps=8.4u
M1007 a_90_2490# B vdd vdd pfet w=11.999999u l=0.6u
+  ad=14.4p pd=14.4u as=14.4p ps=14.4u
.ends

.subckt CLKBUF1 A Y vdd gnd
M1000 a_360_210# A gnd gnd nfet w=6u l=0.6u
+  ad=7.2p pd=8.4u as=12.599999p ps=16.199999u
M1001 a_960_210# a_360_210# vdd vdd pfet w=11.999999u l=0.6u
+  ad=14.4p pd=14.4u as=14.4p ps=14.4u
M1002 gnd A a_360_210# gnd nfet w=6u l=0.6u
+  ad=7.2p pd=8.4u as=7.2p ps=8.4u
M1003 a_960_210# a_360_210# gnd gnd nfet w=6u l=0.6u
+  ad=7.2p pd=8.4u as=7.2p ps=8.4u
M1004 vdd a_360_210# a_960_210# vdd pfet w=11.999999u l=0.6u
+  ad=14.4p pd=14.4u as=14.4p ps=14.4u
M1005 gnd a_360_210# a_960_210# gnd nfet w=6u l=0.6u
+  ad=7.2p pd=8.4u as=7.2p ps=8.4u
M1006 Y a_1560_210# vdd vdd pfet w=11.999999u l=0.6u
+  ad=14.4p pd=14.4u as=14.4p ps=14.4u
M1007 Y a_1560_210# gnd gnd nfet w=6u l=0.6u
+  ad=7.2p pd=8.4u as=7.2p ps=8.4u
M1008 a_360_210# A vdd vdd pfet w=11.999999u l=0.6u
+  ad=14.4p pd=14.4u as=25.199999p ps=28.2u
M1009 a_1560_210# a_960_210# gnd gnd nfet w=6u l=0.6u
+  ad=7.2p pd=8.4u as=7.2p ps=8.4u
M1010 a_1560_210# a_960_210# vdd vdd pfet w=11.999999u l=0.6u
+  ad=14.4p pd=14.4u as=14.4p ps=14.4u
M1011 gnd a_1560_210# Y gnd nfet w=6u l=0.6u
+  ad=12.599999p pd=16.199999u as=7.2p ps=8.4u
M1012 gnd a_960_210# a_1560_210# gnd nfet w=6u l=0.6u
+  ad=7.2p pd=8.4u as=7.2p ps=8.4u
M1013 vdd a_1560_210# Y vdd pfet w=11.999999u l=0.6u
+  ad=25.199999p pd=28.2u as=14.4p ps=14.4u
M1014 vdd A a_360_210# vdd pfet w=11.999999u l=0.6u
+  ad=14.4p pd=14.4u as=14.4p ps=14.4u
M1015 vdd a_960_210# a_1560_210# vdd pfet w=11.999999u l=0.6u
+  ad=14.4p pd=14.4u as=14.4p ps=14.4u
.ends

.subckt MUX2X1 A B S Y vdd gnd
M1000 Y S a_660_2370# vdd pfet w=11.999999u l=0.6u
+  ad=14.49p pd=15.6u as=5.4p ps=12.9u
M1001 gnd S a_90_330# gnd nfet w=3u l=0.6u
+  ad=6.3p pd=8.4u as=6.3p ps=10.2u
M1002 a_660_330# B gnd gnd nfet w=6u l=0.6u
+  ad=2.7p pd=6.9u as=6.3p ps=8.4u
M1003 a_1110_2490# a_90_330# Y vdd pfet w=11.999999u l=0.6u
+  ad=5.4p pd=12.9u as=14.49p ps=15.6u
M1004 vdd A a_1110_2490# vdd pfet w=11.999999u l=0.6u
+  ad=25.199999p pd=28.2u as=5.4p ps=12.9u
M1005 gnd A a_1110_330# gnd nfet w=6u l=0.6u
+  ad=12.599999p pd=16.199999u as=2.7p ps=6.9u
M1006 vdd S a_90_330# vdd pfet w=6u l=0.6u
+  ad=11.7p pd=14.4u as=12.599999p ps=16.199999u
M1007 Y a_90_330# a_660_330# gnd nfet w=6u l=0.6u
+  ad=7.2p pd=8.4u as=2.7p ps=6.9u
M1008 a_660_2370# B vdd vdd pfet w=11.999999u l=0.6u
+  ad=5.4p pd=12.9u as=11.7p ps=14.4u
M1009 a_1110_330# S Y gnd nfet w=6u l=0.6u
+  ad=2.7p pd=6.9u as=7.2p ps=8.4u
.ends

.subckt DFFSR D S R CLK Q vdd gnd
M1000 a_4500_210# a_5010_210# vdd vdd pfet w=6u l=0.6u
+  ad=7.2p pd=8.4u as=7.2p ps=8.4u
M1001 a_540_150# S a_960_210# gnd nfet w=6u l=0.6u
+  ad=14.4p pd=16.8u as=3.6p ps=7.2u
M1002 a_4200_210# a_1830_150# a_540_150# gnd nfet w=3u l=0.6u
+  ad=3.6p pd=5.4u as=6.3p ps=10.2u
M1003 a_2190_210# a_1830_150# a_900_150# vdd pfet w=3u l=0.6u
+  ad=6.3p pd=8.4u as=3.6p ps=5.4u
M1004 a_4500_210# a_1725_1560# a_4200_210# gnd nfet w=3u l=0.6u
+  ad=6.3p pd=10.2u as=3.6p ps=5.4u
M1005 vdd a_540_150# a_120_210# vdd pfet w=6u l=0.6u
+  ad=7.2p pd=8.4u as=7.2p ps=8.4u
M1006 gnd R a_5310_210# gnd nfet w=6u l=0.6u
+  ad=8.099999p pd=8.7u as=3.6p ps=7.2u
M1007 vdd a_1725_1560# a_1830_150# vdd pfet w=6u l=0.6u
+  ad=7.2p pd=8.4u as=12.599999p ps=16.199999u
M1008 gnd a_1725_1560# a_1830_150# gnd nfet w=3u l=0.6u
+  ad=3.6p pd=5.4u as=6.3p ps=10.2u
M1009 a_5310_210# a_4200_210# a_5010_210# gnd nfet w=6u l=0.6u
+  ad=3.6p pd=7.2u as=14.4p ps=16.8u
M1010 vdd D a_2190_210# vdd pfet w=6u l=0.6u
+  ad=12.599999p pd=16.199999u as=6.3p ps=8.4u
M1011 a_960_210# a_900_150# gnd gnd nfet w=6u l=0.6u
+  ad=3.6p pd=7.2u as=9p ps=8.999999u
M1012 vdd a_5010_210# Q vdd pfet w=6u l=0.6u
+  ad=12.599999p pd=16.199999u as=12.599999p ps=16.199999u
M1013 a_1725_1560# CLK gnd gnd nfet w=3u l=0.6u
+  ad=6.3p pd=10.2u as=3.6p ps=5.4u
M1014 a_4200_210# a_1725_1560# a_540_150# vdd pfet w=3u l=0.6u
+  ad=3.6p pd=5.4u as=6.3p ps=10.2u
M1015 a_4500_210# S a_5820_210# gnd nfet w=6u l=0.6u
+  ad=14.4p pd=16.8u as=3.6p ps=7.2u
M1016 a_540_150# a_900_150# vdd vdd pfet w=6u l=0.6u
+  ad=7.2p pd=8.4u as=7.2p ps=8.4u
M1017 a_5010_210# a_4200_210# vdd vdd pfet w=6u l=0.6u
+  ad=7.2p pd=8.4u as=12.599999p ps=16.199999u
M1018 gnd a_540_150# a_420_210# gnd nfet w=6u l=0.6u
+  ad=9p pd=8.999999u as=3.6p ps=7.2u
M1019 a_900_150# a_1725_1560# a_120_210# vdd pfet w=3u l=0.6u
+  ad=3.6p pd=5.4u as=6.3p ps=10.2u
M1020 a_1725_1560# CLK vdd vdd pfet w=6u l=0.6u
+  ad=12.599999p pd=16.199999u as=7.2p ps=8.4u
M1021 a_5820_210# a_5010_210# gnd gnd nfet w=6u l=0.6u
+  ad=3.6p pd=7.2u as=8.099999p ps=8.7u
M1022 gnd a_5010_210# Q gnd nfet w=3u l=0.6u
+  ad=6.3p pd=10.2u as=6.3p ps=10.2u
M1023 a_420_210# R a_120_210# gnd nfet w=6u l=0.6u
+  ad=3.6p pd=7.2u as=14.4p ps=16.8u
M1024 vdd S a_4500_210# vdd pfet w=6u l=0.6u
+  ad=12.599999p pd=16.199999u as=7.2p ps=8.4u
M1025 vdd S a_540_150# vdd pfet w=6u l=0.6u
+  ad=11.879999p pd=16.199999u as=7.2p ps=8.4u
M1026 a_4500_210# a_1830_150# a_4200_210# vdd pfet w=3u l=0.6u
+  ad=6.3p pd=10.2u as=3.6p ps=5.4u
M1027 vdd R a_5010_210# vdd pfet w=6u l=0.6u
+  ad=7.2p pd=8.4u as=7.2p ps=8.4u
M1028 a_2190_210# a_1725_1560# a_900_150# gnd nfet w=3u l=0.6u
+  ad=3.6p pd=5.4u as=3.6p ps=5.4u
M1029 a_120_210# R vdd vdd pfet w=6u l=0.6u
+  ad=7.2p pd=8.4u as=12.599999p ps=16.199999u
M1030 gnd D a_2190_210# gnd nfet w=3u l=0.6u
+  ad=6.3p pd=10.2u as=3.6p ps=5.4u
M1031 a_900_150# a_1830_150# a_120_210# gnd nfet w=3u l=0.6u
+  ad=3.6p pd=5.4u as=6.3p ps=10.2u
.ends

.subckt ALU_wrapper_Core gnd vdd ABCmd_i[7] ABCmd_i[6] ABCmd_i[5] ABCmd_i[4] ABCmd_i[3]
+ ABCmd_i[2] ABCmd_i[1] ABCmd_i[0] ACC_o[7] ACC_o[6] ACC_o[5] ACC_o[4] ACC_o[3] ACC_o[2]
+ ACC_o[1] ACC_o[0] Done_o LoadA_i LoadB_i LoadCmd_i clk reset
X_1270_ _1292_/B _1370_/A _1422_/A vdd gnd AND2X2
X_1606_ _946_/A _918_/C _1606_/C _1631_/D vdd gnd OAI21X1
X_1399_ _1406_/A _1406_/B _1441_/A vdd gnd AND2X2
X_1468_ _1468_/A _1510_/A _1468_/C _1510_/B vdd gnd NAND3X1
X_1537_ _1558_/A _1561_/A vdd gnd INVX1
X_981_ _981_/A _981_/B _981_/C _982_/B vdd gnd AOI21X1
X_1253_ _1338_/A _1342_/B _1338_/C _1339_/B vdd gnd OAI21X1
X_1322_ _1325_/B _1325_/A _1322_/C _1322_/D _1341_/A vdd gnd OAI22X1
X_1184_ _1184_/A _1185_/C vdd gnd INVX1
X_895_ _898_/A _899_/A _896_/B vdd gnd NOR2X1
X_964_ _985_/A _988_/B _972_/A vdd gnd NAND2X1
X_1236_ _1329_/B _1307_/B _1248_/A vdd gnd NAND2X1
X_1305_ _1372_/B _1372_/A _1373_/B vdd gnd XNOR2X1
X_1098_ _979_/B _1301_/A _1098_/C _1099_/C vdd gnd OAI21X1
X_1167_ _999_/A _988_/A _1186_/B vdd gnd NAND2X1
XBUFX2_insert0 _1612_/Q _936_/A vdd gnd BUFX2
X_947_ ABCmd_i[7] _949_/A vdd gnd INVX4
X_1021_ _991_/A _1760_/A _1325_/B vdd gnd AND2X2
X_1785_ _1809_/B _1809_/C _1809_/A _1803_/C vdd gnd OAI21X1
X_1219_ _1257_/B _1257_/A _1299_/A vdd gnd NAND2X1
X_1570_ _1570_/A _1570_/B _1570_/C _1572_/B vdd gnd AOI21X1
X_1004_ _953_/B _1211_/A _980_/A _1005_/A vdd gnd OAI21X1
X_1768_ _1768_/A _1768_/B _1768_/C _1769_/A vdd gnd AOI21X1
X_1699_ _1706_/A _988_/A _1783_/C _1700_/C vdd gnd OAI21X1
X_1622_ _1622_/D _1624_/CLK _1823_/A vdd gnd DFFPOSX1
X_1484_ _949_/A _1484_/B _1484_/C _1485_/A vdd gnd OAI21X1
X_1553_ _1754_/Y _1554_/B vdd gnd INVX1
X_1536_ _1560_/A _1560_/C _1548_/B vdd gnd NAND2X1
X_1605_ _1760_/A _1605_/B _1606_/C vdd gnd NAND2X1
X_1398_ _1441_/C _1462_/B _1462_/A _1471_/A vdd gnd OAI21X1
X_1467_ _1467_/A _1467_/B _1467_/C _1468_/C vdd gnd OAI21X1
X_980_ _980_/A _980_/B _980_/C _982_/A vdd gnd OAI21X1
X_1252_ _1298_/A _1298_/B _1298_/C _1299_/C vdd gnd NAND3X1
X_1321_ _1323_/B _1323_/C _1379_/A _1322_/D vdd gnd AOI21X1
X_1183_ _975_/A _1193_/A _1183_/C _1480_/A vdd gnd NAND3X1
X_1519_ _1521_/A _1521_/B _1520_/C vdd gnd NAND2X1
X_894_ _915_/A _899_/A vdd gnd INVX2
X_963_ _983_/A _995_/A vdd gnd INVX1
X_1166_ _960_/A _1361_/A _1169_/C vdd gnd OR2X2
X_1235_ _1387_/A _1387_/B _1329_/B vdd gnd XOR2X1
X_1304_ _1304_/A _1304_/B _1304_/C _1304_/D _1372_/B vdd gnd OAI22X1
XBUFX2_insert1 _1612_/Q _1391_/B vdd gnd BUFX2
X_1097_ _953_/B _969_/B _1114_/B _1099_/B vdd gnd OAI21X1
X_946_ _946_/A _946_/B _946_/C _946_/Y vdd gnd OAI21X1
X_1020_ _996_/A _997_/B _997_/C _1053_/A vdd gnd OAI21X1
X_1784_ _1784_/A _948_/A _1784_/C _1809_/C vdd gnd AOI21X1
X_1149_ _1151_/C _1151_/B _1151_/A _1174_/A vdd gnd AOI21X1
X_1218_ _1296_/B _1218_/B _1296_/A _1257_/B vdd gnd OAI21X1
X_929_ ABCmd_i[1] _931_/A vdd gnd INVX1
X_1003_ _962_/B _1211_/A vdd gnd INVX1
X_1698_ _1698_/A _1698_/B _1698_/C _1708_/A vdd gnd OAI21X1
X_1767_ ABCmd_i[6] _1768_/C vdd gnd INVX1
X_1552_ _1552_/A _1576_/C ABCmd_i[7] _1555_/A vdd gnd OAI21X1
X_1621_ _1621_/D _1635_/CLK _1822_/A vdd gnd DFFPOSX1
X_1483_ _1769_/B _949_/A _1484_/C vdd gnd NAND2X1
X_1819_ _1819_/A ACC_o[1] vdd gnd BUFX2
X_1535_ _1535_/A _1586_/C vdd gnd INVX1
X_1604_ _943_/A _1604_/B _1604_/C _1630_/D vdd gnd OAI21X1
X_1397_ _1441_/B _1462_/B vdd gnd INVX1
X_1466_ _1506_/B _1466_/B _1466_/C _1510_/A vdd gnd NAND3X1
X_1320_ _1496_/A _979_/B _1320_/C _1323_/C vdd gnd OAI21X1
X_1182_ _1194_/A _1183_/C vdd gnd INVX1
X_1251_ _1257_/A _1257_/B _1339_/A vdd gnd AND2X2
X_1449_ _1449_/A _1488_/C _1449_/C _1460_/C vdd gnd NAND3X1
X_1518_ _1570_/A _1570_/B _1548_/A _1549_/B vdd gnd AOI21X1
X_893_ _904_/B _898_/B vdd gnd INVX1
X_962_ _988_/A _962_/B _983_/A vdd gnd NAND2X1
X_1303_ _991_/B _977_/A _1304_/B vdd gnd NAND2X1
X_1096_ _1096_/A _1096_/B _1212_/C _1105_/A vdd gnd NAND3X1
X_1165_ _927_/A _978_/B _1361_/A vdd gnd NAND2X1
X_1234_ _988_/A _1760_/A _1387_/B vdd gnd NAND2X1
XBUFX2_insert2 _1612_/Q _978_/A vdd gnd BUFX2
X_945_ _945_/A _949_/B _946_/C vdd gnd NAND2X1
X_1783_ _1784_/A _948_/A _1783_/C _1784_/C vdd gnd OAI21X1
X_1079_ _988_/A _986_/B _1237_/B vdd gnd NAND2X1
X_1148_ _983_/A _995_/B _983_/C _1151_/C vdd gnd NAND3X1
X_1217_ _1217_/A _1217_/B _1296_/B vdd gnd NOR2X1
X_928_ _928_/A _946_/B _928_/C _928_/Y vdd gnd OAI21X1
X_1002_ _955_/A _1114_/A _1005_/C vdd gnd NAND2X1
X_1697_ _962_/B _1697_/B _1802_/B _1698_/B vdd gnd OAI21X1
X_1766_ _1804_/B _1805_/A _1795_/B vdd gnd NAND2X1
X_1482_ _1528_/C _1482_/B _1484_/B vdd gnd NAND2X1
X_1551_ _1551_/A _1551_/B _1551_/C _1552_/A vdd gnd AOI21X1
X_1620_ _1620_/D _1635_/CLK _1821_/A vdd gnd DFFPOSX1
X_1818_ _950_/A ACC_o[0] vdd gnd BUFX2
X_1749_ _1784_/A _999_/B _1749_/C _1771_/A vdd gnd AOI21X1
X_1465_ _1465_/A _1465_/B _1465_/C _1473_/A vdd gnd NAND3X1
X_1534_ _1823_/A _1556_/A vdd gnd INVX1
X_1603_ _991_/B _1604_/B _1604_/C vdd gnd NAND2X1
X_1396_ _1400_/A _1400_/B _1408_/A _1441_/B vdd gnd NAND3X1
X_1181_ _1551_/A _1203_/A _1203_/B _1204_/C vdd gnd NOR3X1
X_1250_ _1299_/A _1258_/B _1258_/A _1350_/A vdd gnd NAND3X1
X_1448_ _1488_/B _1449_/C vdd gnd INVX1
X_1517_ _1521_/A _1521_/B _1517_/C _1521_/C _1570_/A vdd gnd AOI22X1
X_1379_ _1379_/A _1379_/B _1379_/C _1384_/B vdd gnd OAI21X1
X_961_ _961_/A _961_/B _961_/C _981_/C vdd gnd OAI21X1
X_892_ _892_/A _909_/B vdd gnd INVX1
X_1233_ _1233_/A _1233_/B _1233_/C _1307_/B vdd gnd AOI21X1
X_1302_ _1391_/B _986_/D _1304_/A vdd gnd NAND2X1
X_1095_ _1212_/B _1096_/B vdd gnd INVX1
X_1164_ _1164_/A _1164_/B _961_/C _1172_/A vdd gnd NAND3X1
XBUFX2_insert3 _1612_/Q _952_/A vdd gnd BUFX2
X_944_ ABCmd_i[6] _946_/A vdd gnd INVX1
X_1782_ _1782_/A _1782_/B _1782_/C _1809_/A vdd gnd OAI21X1
X_1216_ _1217_/B _1217_/A _1218_/B vdd gnd AND2X2
X_1078_ _1237_/A _1233_/A vdd gnd INVX1
X_1147_ _995_/C _983_/B _995_/A _1151_/B vdd gnd OAI21X1
X_927_ _927_/A _946_/B _928_/C vdd gnd NAND2X1
X_1001_ _978_/A _962_/B _1114_/A vdd gnd AND2X2
XCLKBUF1_insert10 clk _1635_/CLK vdd gnd CLKBUF1
X_1765_ _1765_/A _1765_/B _1803_/A _1804_/B vdd gnd OAI21X1
X_1696_ ABCmd_i[0] _1696_/B _1697_/B vdd gnd NOR2X1
X_1481_ _1481_/A _1481_/B _1482_/B vdd gnd NAND2X1
X_1550_ _1586_/C _1550_/B _1550_/C _1556_/C vdd gnd NAND3X1
X_1748_ _1784_/A _999_/B _1783_/C _1749_/C vdd gnd OAI21X1
X_1817_ _1817_/A _1817_/B _1817_/Y vdd gnd NAND2X1
X_1679_ _927_/A _1679_/B _1680_/A vdd gnd NAND2X1
X_1602_ _940_/A _1604_/B _1602_/C _1629_/D vdd gnd OAI21X1
X_1395_ _1400_/A _1400_/B _1408_/A _1441_/C vdd gnd AOI21X1
X_1464_ _1467_/A _1467_/B _1466_/C _1465_/B vdd gnd OAI21X1
X_1533_ _1533_/A _911_/A _1533_/C _1533_/D _1621_/D vdd gnd AOI22X1
X_1180_ _1286_/B _1286_/A _1180_/C _1203_/B vdd gnd AOI21X1
X_1516_ _1516_/A _1516_/B _1521_/B vdd gnd NAND2X1
X_1378_ _969_/B _1567_/B _1384_/A vdd gnd NOR2X1
X_1447_ _1447_/A _1447_/B _1488_/B vdd gnd NOR2X1
X_891_ _915_/A _903_/A _892_/A vdd gnd NAND2X1
X_960_ _960_/A _960_/B _961_/B vdd gnd AND2X2
X_1232_ _1247_/B _1247_/A _1330_/A vdd gnd NAND2X1
X_1301_ _1301_/A _1567_/B _1372_/A vdd gnd NOR2X1
X_1094_ _952_/A _986_/D _977_/A _988_/B _1212_/B vdd gnd AOI22X1
X_1163_ _1163_/A _1163_/B _982_/C _1196_/B vdd gnd NAND3X1
XBUFX2_insert4 _1609_/Q _1655_/A vdd gnd BUFX2
X_943_ _943_/A _943_/B _943_/C _943_/Y vdd gnd OAI21X1
X_1781_ _1781_/A _1781_/B _1802_/B _1782_/A vdd gnd OAI21X1
X_1146_ _1164_/B _1164_/A _1170_/A _1151_/A vdd gnd AOI21X1
X_1215_ _1215_/A _1296_/C _1215_/C _1257_/A vdd gnd NAND3X1
X_1077_ _986_/A _1781_/A _986_/C _1760_/A _1237_/A vdd gnd AOI22X1
X_926_ ABCmd_i[0] _928_/A vdd gnd INVX1
X_1000_ _999_/Y _1005_/B vdd gnd INVX1
XCLKBUF1_insert11 clk _1631_/CLK vdd gnd CLKBUF1
X_1764_ _1809_/B _1765_/B _1765_/A _1803_/A vdd gnd OAI21X1
X_1695_ _988_/A _1696_/B vdd gnd INVX1
X_1129_ _1207_/B _1129_/B _1208_/A vdd gnd NAND2X1
X_1480_ _1480_/A _1480_/B _1481_/B vdd gnd NAND2X1
X_909_ _915_/B _909_/B _924_/A _910_/C vdd gnd OAI21X1
X_1678_ ABCmd_i[1] _1678_/B ABCmd_i[0] _1680_/B vdd gnd MUX2X1
X_1747_ _1747_/A _1747_/B _1747_/C _1772_/A vdd gnd OAI21X1
X_1816_ _1816_/A _1816_/B _1816_/C _1817_/B vdd gnd NAND3X1
X_1532_ _1532_/A _899_/A _911_/A _1533_/D vdd gnd AOI21X1
X_1601_ _986_/D _1604_/B _1602_/C vdd gnd NAND2X1
X_1394_ _1394_/A _1445_/C _1408_/A vdd gnd XNOR2X1
X_1463_ _1506_/B _1467_/B vdd gnd INVX1
X_1515_ _1515_/A _1517_/C _1515_/C _1570_/B vdd gnd NAND3X1
X_1377_ _1439_/A _1382_/A vdd gnd INVX1
X_1446_ _1447_/A _1447_/B _1488_/C vdd gnd NAND2X1
X_890_ _904_/B _904_/C _903_/A vdd gnd NOR2X1
X_1162_ _1162_/A _1162_/B _1203_/A _1205_/A vdd gnd AOI21X1
X_1231_ _1231_/A _1231_/B _1231_/C _1247_/B vdd gnd NAND3X1
X_1300_ _962_/B _948_/A _1373_/A vdd gnd NAND2X1
X_1093_ _1114_/B _1098_/C _1212_/C vdd gnd NAND2X1
XBUFX2_insert5 _1609_/Q _927_/A vdd gnd BUFX2
X_1429_ _1429_/A _1429_/B _1429_/C _1430_/A vdd gnd AOI21X1
X_942_ _999_/B _942_/B _943_/C vdd gnd NAND2X1
X_1780_ _1780_/A _948_/A _1780_/C _1780_/D _1782_/B vdd gnd AOI22X1
X_1145_ _969_/A _1301_/A _960_/A _1164_/A vdd gnd OAI21X1
X_1214_ _1217_/B _1217_/A _1215_/C vdd gnd OR2X2
X_1076_ _986_/A _1781_/A _1325_/B _1237_/C vdd gnd NAND3X1
X_925_ reset _925_/Y vdd gnd INVX1
XCLKBUF1_insert12 clk _1624_/CLK vdd gnd CLKBUF1
X_1694_ _1780_/A _988_/A _1694_/C _1780_/D _1698_/A vdd gnd AOI22X1
X_1763_ _1784_/A _945_/A _1763_/C _1765_/B vdd gnd AOI21X1
X_1059_ _1108_/B _1074_/C _1108_/A _1067_/A vdd gnd OAI21X1
X_1128_ _1128_/A _1128_/B _1128_/C _1129_/B vdd gnd NAND3X1
X_908_ LoadCmd_i _924_/A vdd gnd INVX1
X_1815_ _1815_/A _1815_/B _1815_/C _1817_/A vdd gnd NAND3X1
X_1677_ _932_/A _1783_/C _1683_/B _1684_/B vdd gnd OAI21X1
X_1746_ _1746_/A _1746_/B _1802_/B _1747_/A vdd gnd OAI21X1
X_1462_ _1462_/A _1462_/B _1462_/C _1466_/C vdd gnd OAI21X1
X_1531_ _949_/A _1531_/B _1531_/C _1532_/A vdd gnd OAI21X1
X_1600_ _937_/A _1605_/B _1600_/C _1628_/D vdd gnd OAI21X1
X_1393_ _1445_/A _1456_/C _1393_/C _1394_/A vdd gnd OAI21X1
X_1729_ _1778_/A _939_/A _1732_/B vdd gnd AND2X2
X_1445_ _1445_/A _1456_/C _1445_/C _1445_/D _1447_/B vdd gnd OAI22X1
X_1514_ _1520_/B _1520_/A _1517_/C vdd gnd NOR2X1
X_1376_ _988_/B _948_/A _1439_/A vdd gnd NAND2X1
X_1092_ _978_/A _986_/D _1098_/C vdd gnd AND2X2
X_1161_ _1206_/C _1266_/B _1266_/A _1162_/A vdd gnd OAI21X1
X_1230_ _1304_/D _1231_/B vdd gnd INVX1
XBUFX2_insert6 _1609_/Q _986_/A vdd gnd BUFX2
X_1428_ _1428_/A _922_/C _1433_/D vdd gnd NOR2X1
X_1359_ _1361_/A _1361_/B _1362_/B vdd gnd AND2X2
X_941_ ABCmd_i[5] _943_/A vdd gnd INVX1
X_1213_ _1217_/A _1217_/B _1296_/C vdd gnd NAND2X1
X_1075_ _1075_/A _1075_/B _1088_/A _1104_/A vdd gnd OAI21X1
X_1144_ _961_/A _1164_/B vdd gnd INVX1
X_924_ _924_/A _924_/B _924_/C _924_/Y vdd gnd OAI21X1
X_1693_ _962_/B _988_/A _1778_/A _1694_/C vdd gnd NAND3X1
X_1762_ _1784_/A _945_/A _1783_/C _1763_/C vdd gnd OAI21X1
X_1058_ _1108_/C _1074_/A _1074_/B _1067_/B vdd gnd NAND3X1
X_1127_ _1127_/A _1127_/B _1207_/A _1207_/B vdd gnd NAND3X1
X_907_ _922_/C _914_/C vdd gnd INVX1
X_1745_ _1780_/A _999_/B _1745_/C _1780_/D _1747_/B vdd gnd AOI22X1
X_1814_ _1816_/A _1816_/B _1815_/C vdd gnd NAND2X1
X_1676_ _1678_/B _1676_/B _1676_/C _1683_/B vdd gnd OAI21X1
X_1392_ _1445_/D _1393_/C vdd gnd INVX1
X_1461_ _1466_/B _1506_/B _1467_/C _1465_/C vdd gnd NAND3X1
X_1530_ _1794_/B _949_/A _1531_/C vdd gnd NAND2X1
X_1728_ ABCmd_i[5] _1746_/A _1733_/C vdd gnd NAND2X1
X_1659_ _1659_/A _1661_/A _1792_/A vdd gnd XOR2X1
X_1375_ _1375_/A _1375_/B _1375_/C _1413_/C vdd gnd AOI21X1
X_1444_ _1496_/A _1567_/B _1447_/A vdd gnd NOR2X1
X_1513_ _1513_/A _1513_/B _1515_/C vdd gnd NOR2X1
X_1091_ _976_/A _988_/B _1114_/B vdd gnd AND2X2
X_1160_ _1206_/A _1206_/B _1266_/C _1162_/B vdd gnd NAND3X1
XBUFX2_insert7 _1609_/Q _984_/A vdd gnd BUFX2
X_1358_ _1358_/A _1358_/B _1358_/C _1364_/C vdd gnd OAI21X1
X_1427_ ABCmd_i[7] _1797_/Y _1428_/A vdd gnd NOR2X1
X_1289_ _1289_/A _1289_/B _1289_/C _1290_/B vdd gnd AOI21X1
X_940_ _940_/A _943_/B _940_/C _940_/Y vdd gnd OAI21X1
X_1212_ _1212_/A _1212_/B _1212_/C _1217_/B vdd gnd OAI21X1
X_1074_ _1074_/A _1074_/B _1074_/C _1126_/C vdd gnd AOI21X1
X_1143_ _960_/A _960_/B _1170_/A vdd gnd NOR2X1
X_923_ _923_/A _923_/B _924_/C vdd gnd AND2X2
X_1761_ _1802_/B _1810_/B _1761_/C _1761_/D _1765_/A vdd gnd OAI22X1
X_1692_ ABCmd_i[5] _988_/B _1698_/C vdd gnd NAND2X1
X_1126_ _1126_/A _1126_/B _1126_/C _1256_/C vdd gnd AOI21X1
X_1057_ _1154_/A _1153_/B _994_/Y _1067_/C vdd gnd OAI21X1
X_906_ _915_/A _911_/A _922_/C vdd gnd NOR2X1
X_1744_ _1746_/A _1746_/B _1745_/C vdd gnd NAND2X1
X_1813_ _1813_/A _1813_/B _1813_/C _1816_/B vdd gnd NAND3X1
X_1675_ _1675_/A _1676_/C vdd gnd INVX1
X_1109_ _1246_/C _1220_/B _1220_/A _1125_/B vdd gnd NAND3X1
X_1391_ _1781_/A _1391_/B _1760_/A _1452_/B _1445_/D vdd gnd AOI22X1
X_1460_ _1460_/A _1460_/B _1460_/C _1506_/B vdd gnd NAND3X1
X_1658_ _1684_/A _1660_/A _1661_/C _1659_/A vdd gnd OAI21X1
X_1727_ _1727_/A _1793_/A _1727_/C _1741_/A vdd gnd OAI21X1
X_1589_ _1808_/C _949_/A _1590_/C vdd gnd NAND2X1
X_1512_ _1558_/A _1558_/C _1548_/A vdd gnd NAND2X1
X_1374_ _1414_/A _1472_/A vdd gnd INVX1
X_1443_ _1488_/A _1449_/A vdd gnd INVX1
X_1090_ _1212_/A _1096_/A vdd gnd INVX1
X_1288_ _1289_/B _1289_/C _1289_/A _1576_/A vdd gnd NAND3X1